version 2
run General-0-20190422-15:59:34-9778
attr configname General
attr datetime 20190422-15:59:34
attr experiment General
attr inifile 01_SanityCheck.ini
attr iterationvars ""
attr iterationvarsf ""
attr measurement ""
attr network TestNetwork
attr processid 9778
attr repetition 0
attr replication #0
attr resultdir 01_results_SanityCheck
attr runnumber 0
attr seedset 0
param **.displayAddresses true
param **.verbose true
param **.promiscuous true
param **.registerProtocol true
param **.*.clock.clockRate "\"1us\""
param **.robotController.eth.address "\"00-00-00-00-00-01\""
param **.workstation1.eth.address "\"00-00-00-00-00-02\""
param **.sink.eth.address "\"00-00-00-00-00-03\""
param **.switch*.processingDelay[*].delay 5us
param **.filteringDatabase.database "xmldoc(\"01_results_SanityCheck/01_SanityCheck_Routing.xml\", \"/filteringDatabases/\")"
param **.filteringDatabase.cycle "xmldoc(\"01_results_SanityCheck/01_SanityCheck_Schedule.xml\", \"/schedule/\")"
param **.gateController.initialSchedule "xmldoc(\"01_results_SanityCheck/01_SanityCheck_Schedule.xml\")"
param **.gateController.enableHoldAndRelease false
param **.switch*.queuing[*].tsAlgorithms[0].typename "\"StrictPriority\""
param **.switch*.queuing[*].tsAlgorithms[1].typename "\"StrictPriority\""
param **.switch*.queuing[*].tsAlgorithms[2].typename "\"StrictPriority\""
param **.switch*.queuing[*].tsAlgorithms[3].typename "\"StrictPriority\""
param **.switch*.queuing[*].tsAlgorithms[4].typename "\"StrictPriority\""
param **.switch*.queuing[*].tsAlgorithms[5].typename "\"StrictPriority\""
param **.switch*.queuing[*].tsAlgorithms[6].typename "\"StrictPriority\""
param **.switch*.queuing[*].tsAlgorithms[7].typename "\"StrictPriority\""
param **.queues[0].expressQueue false
param **.queues[1].expressQueue false
param **.queues[2].expressQueue false
param **.queues[3].expressQueue false
param **.queues[4].expressQueue false
param **.queues[5].expressQueue false
param **.queues[6].expressQueue false
param **.queues[7].expressQueue true
param **.queues[*].bufferCapacity 363360b
param **.switchA.eth[2].mac.enablePreemptingFrames true
param **.robotController.trafGenSchedApp.initialSchedule "xmldoc(\"01_results_SanityCheck/01_SanityCheck_Schedule.xml\")"
param **.workstation1.trafGenQueueApp.destAddress "\"00-00-00-00-00-03\""
param **.workstation1.trafGenQueueApp.packetLength "1500Byte - 4Byte"
param **.workstation1.trafGenQueueApp.vlanTagEnabled true
param **.workstation1.trafGenQueueApp.pcp 6
param **.sink.trafGenApp.numPacketsPerBurst 0
param **.sink.trafGenApp.sendInterval 1ms
param **.sink.trafGenApp.packetLength 100B

scalar TestNetwork.workstation1.trafGenQueueApp sentPk:count 7
attr interpolationmode none
attr source sentPk
attr title "packets sent, count"
scalar TestNetwork.workstation1.trafGenQueueApp sentPk:sum(packetBytes) 10472
attr interpolationmode none
attr source sentPk
attr title "packets sent, sum(packetBytes)"
scalar TestNetwork.workstation1.sink throughput 0
scalar TestNetwork.workstation1.sink packetPerSec 0
scalar TestNetwork.workstation1.sink packetReceived:count 0
attr interpolationmode none
attr source packetReceived
attr title "packets received, count"
scalar TestNetwork.workstation1.sink packetReceived:sum(packetBytes) 0
attr interpolationmode none
attr source packetReceived
attr title "packets received, sum(packetBytes)"
scalar TestNetwork.workstation1.eth.mac "simulated time" 0.000850704427
scalar TestNetwork.workstation1.eth.mac full-duplex 1
scalar TestNetwork.workstation1.eth.mac "frames/sec sent" 7052.9784606375
scalar TestNetwork.workstation1.eth.mac "frames/sec rcvd" 0
scalar TestNetwork.workstation1.eth.mac "bits/sec sent" 85594946.598297
scalar TestNetwork.workstation1.eth.mac "bits/sec rcvd" 0
scalar TestNetwork.workstation1.eth.mac "rx channel idle (%)" 100
scalar TestNetwork.workstation1.eth.mac "rx channel utilization (%)" 0
scalar TestNetwork.workstation1.eth.mac rxPausePkUnits:count 0
attr interpolationmode none
attr title "pause units received, count"
scalar TestNetwork.workstation1.eth.mac rxPausePkUnits:sum 0
attr interpolationmode none
attr title "pause units received, sum"
scalar TestNetwork.workstation1.eth.mac txPausePkUnits:count 0
attr interpolationmode none
attr title "pause units sent, count"
scalar TestNetwork.workstation1.eth.mac txPausePkUnits:sum 0
attr interpolationmode none
attr title "pause units sent, sum"
scalar TestNetwork.workstation1.eth.mac rxPkOk:count 0
attr interpolationmode none
attr source rxPkOk
attr title "packets received OK, count"
scalar TestNetwork.workstation1.eth.mac rxPkOk:sum(packetBytes) 0
attr interpolationmode none
attr source rxPkOk
attr title "packets received OK, sum(packetBytes)"
scalar TestNetwork.workstation1.eth.mac txPk:count 6
attr interpolationmode none
attr source packetSentToLower
attr title "packets transmitted, count"
scalar TestNetwork.workstation1.eth.mac txPk:sum(packetBytes) 9102
attr interpolationmode none
attr source packetSentToLower
attr title "packets transmitted, sum(packetBytes)"
scalar TestNetwork.workstation1.eth.mac packetReceivedFromUpper:count 7
attr interpolationmode none
attr source packetReceivedFromUpper
attr title "packet bytes from higher layer, count"
scalar TestNetwork.workstation1.eth.mac packetReceivedFromUpper:sum(packetBytes) 10619
attr interpolationmode none
attr source packetReceivedFromUpper
attr title "packet bytes from higher layer, sum(packetBytes)"
scalar TestNetwork.workstation1.eth.mac passedUpPk:count 0
attr interpolationmode none
attr source packetSentToUpper
attr title "packets passed to higher layer, count"
scalar TestNetwork.workstation1.eth.mac passedUpPk:sum(packetBytes) 0
attr interpolationmode none
attr source packetSentToUpper
attr title "packets passed to higher layer, sum(packetBytes)"
scalar TestNetwork.workstation1.eth.mac packetDropIncorrectlyReceived:count 0
attr interpolationmode none
attr source packetDropReasonIsIncorrectlyReceived(packetDropped)
attr title "packet drop: incorrectly received, count"
scalar TestNetwork.workstation1.eth.mac packetDropIncorrectlyReceived:sum(packetBytes) 0
attr interpolationmode none
attr source packetDropReasonIsIncorrectlyReceived(packetDropped)
attr title "packet drop: incorrectly received, sum(packetBytes)"
scalar TestNetwork.workstation1.eth.mac packetDropInterfaceDown:count 0
attr interpolationmode none
attr source packetDropReasonIsInterfaceDown(packetDropped)
attr title "packet drop: interface down, count"
scalar TestNetwork.workstation1.eth.mac packetDropInterfaceDown:sum(packetBytes) 0
attr interpolationmode none
attr source packetDropReasonIsInterfaceDown(packetDropped)
attr title "packet drop: interface down, sum(packetBytes)"
scalar TestNetwork.workstation1.eth.mac packetDropNotAddressedToUs:count 0
attr interpolationmode none
attr source packetDropReasonIsNotAddressedToUs(packetDropped)
attr title "packet drop: not addressed to us, count"
scalar TestNetwork.workstation1.eth.mac packetDropNotAddressedToUs:sum(packetBytes) 0
attr interpolationmode none
attr source packetDropReasonIsNotAddressedToUs(packetDropped)
attr title "packet drop: not addressed to us, sum(packetBytes)"
scalar TestNetwork.workstation1.eth.etherEncap pauseSent:count 0
attr title "pause sent, count"
scalar TestNetwork.workstation1.eth.etherEncap pauseSent:sum 0
attr title "pause sent, sum"
scalar TestNetwork.workstation1.eth.etherEncap decapPk:count 0
attr interpolationmode none
attr source decapPk
attr title "packets decapsulated, count"
scalar TestNetwork.workstation1.eth.etherEncap decapPk:sum(packetBytes) 0
attr interpolationmode none
attr source decapPk
attr title "packets decapsulated, sum(packetBytes)"
scalar TestNetwork.workstation1.eth.etherEncap encapPk:count 7
attr interpolationmode none
attr source encapPk
attr title "packets encapsulated, count"
scalar TestNetwork.workstation1.eth.etherEncap encapPk:sum(packetBytes) 10472
attr interpolationmode none
attr source encapPk
attr title "packets encapsulated, sum(packetBytes)"
scalar TestNetwork.workstation1.eth.vlanEncap decapPk:count 0
attr interpolationmode none
attr source decapPk
attr title "packets decapsulated, count"
scalar TestNetwork.workstation1.eth.vlanEncap decapPk:sum(packetBytes) 0
attr interpolationmode none
attr source decapPk
attr title "packets decapsulated, sum(packetBytes)"
scalar TestNetwork.workstation1.eth.vlanEncap encapPk:count 7
attr interpolationmode none
attr source encapPk
attr title "packets encapsulated, count"
scalar TestNetwork.workstation1.eth.vlanEncap encapPk:sum(packetBytes) 10521
attr interpolationmode none
attr source encapPk
attr title "packets encapsulated, sum(packetBytes)"
scalar TestNetwork.robotController.eth.mac "simulated time" 0.000850704427
scalar TestNetwork.robotController.eth.mac full-duplex 1
scalar TestNetwork.robotController.eth.mac "frames/sec sent" 3526.4892303188
scalar TestNetwork.robotController.eth.mac "frames/sec rcvd" 0
scalar TestNetwork.robotController.eth.mac "bits/sec sent" 10579467.690956
scalar TestNetwork.robotController.eth.mac "bits/sec rcvd" 0
scalar TestNetwork.robotController.eth.mac "rx channel idle (%)" 100
scalar TestNetwork.robotController.eth.mac "rx channel utilization (%)" 0
scalar TestNetwork.robotController.eth.mac rxPausePkUnits:count 0
attr interpolationmode none
attr title "pause units received, count"
scalar TestNetwork.robotController.eth.mac rxPausePkUnits:sum 0
attr interpolationmode none
attr title "pause units received, sum"
scalar TestNetwork.robotController.eth.mac txPausePkUnits:count 0
attr interpolationmode none
attr title "pause units sent, count"
scalar TestNetwork.robotController.eth.mac txPausePkUnits:sum 0
attr interpolationmode none
attr title "pause units sent, sum"
scalar TestNetwork.robotController.eth.mac rxPkOk:count 0
attr interpolationmode none
attr source rxPkOk
attr title "packets received OK, count"
scalar TestNetwork.robotController.eth.mac rxPkOk:sum(packetBytes) 0
attr interpolationmode none
attr source rxPkOk
attr title "packets received OK, sum(packetBytes)"
scalar TestNetwork.robotController.eth.mac txPk:count 3
attr interpolationmode none
attr source packetSentToLower
attr title "packets transmitted, count"
scalar TestNetwork.robotController.eth.mac txPk:sum(packetBytes) 1125
attr interpolationmode none
attr source packetSentToLower
attr title "packets transmitted, sum(packetBytes)"
scalar TestNetwork.robotController.eth.mac packetReceivedFromUpper:count 3
attr interpolationmode none
attr source packetReceivedFromUpper
attr title "packet bytes from higher layer, count"
scalar TestNetwork.robotController.eth.mac packetReceivedFromUpper:sum(packetBytes) 1125
attr interpolationmode none
attr source packetReceivedFromUpper
attr title "packet bytes from higher layer, sum(packetBytes)"
scalar TestNetwork.robotController.eth.mac passedUpPk:count 0
attr interpolationmode none
attr source packetSentToUpper
attr title "packets passed to higher layer, count"
scalar TestNetwork.robotController.eth.mac passedUpPk:sum(packetBytes) 0
attr interpolationmode none
attr source packetSentToUpper
attr title "packets passed to higher layer, sum(packetBytes)"
scalar TestNetwork.robotController.eth.mac packetDropIncorrectlyReceived:count 0
attr interpolationmode none
attr source packetDropReasonIsIncorrectlyReceived(packetDropped)
attr title "packet drop: incorrectly received, count"
scalar TestNetwork.robotController.eth.mac packetDropIncorrectlyReceived:sum(packetBytes) 0
attr interpolationmode none
attr source packetDropReasonIsIncorrectlyReceived(packetDropped)
attr title "packet drop: incorrectly received, sum(packetBytes)"
scalar TestNetwork.robotController.eth.mac packetDropInterfaceDown:count 0
attr interpolationmode none
attr source packetDropReasonIsInterfaceDown(packetDropped)
attr title "packet drop: interface down, count"
scalar TestNetwork.robotController.eth.mac packetDropInterfaceDown:sum(packetBytes) 0
attr interpolationmode none
attr source packetDropReasonIsInterfaceDown(packetDropped)
attr title "packet drop: interface down, sum(packetBytes)"
scalar TestNetwork.robotController.eth.mac packetDropNotAddressedToUs:count 0
attr interpolationmode none
attr source packetDropReasonIsNotAddressedToUs(packetDropped)
attr title "packet drop: not addressed to us, count"
scalar TestNetwork.robotController.eth.mac packetDropNotAddressedToUs:sum(packetBytes) 0
attr interpolationmode none
attr source packetDropReasonIsNotAddressedToUs(packetDropped)
attr title "packet drop: not addressed to us, sum(packetBytes)"
scalar TestNetwork.robotController.eth.etherEncap pauseSent:count 0
attr title "pause sent, count"
scalar TestNetwork.robotController.eth.etherEncap pauseSent:sum 0
attr title "pause sent, sum"
scalar TestNetwork.robotController.eth.etherEncap decapPk:count 0
attr interpolationmode none
attr source decapPk
attr title "packets decapsulated, count"
scalar TestNetwork.robotController.eth.etherEncap decapPk:sum(packetBytes) 0
attr interpolationmode none
attr source decapPk
attr title "packets decapsulated, sum(packetBytes)"
scalar TestNetwork.robotController.eth.etherEncap encapPk:count 3
attr interpolationmode none
attr source encapPk
attr title "packets encapsulated, count"
scalar TestNetwork.robotController.eth.etherEncap encapPk:sum(packetBytes) 1062
attr interpolationmode none
attr source encapPk
attr title "packets encapsulated, sum(packetBytes)"
scalar TestNetwork.robotController.eth.vlanEncap decapPk:count 0
attr interpolationmode none
attr source decapPk
attr title "packets decapsulated, count"
scalar TestNetwork.robotController.eth.vlanEncap decapPk:sum(packetBytes) 0
attr interpolationmode none
attr source decapPk
attr title "packets decapsulated, sum(packetBytes)"
scalar TestNetwork.robotController.eth.vlanEncap encapPk:count 3
attr interpolationmode none
attr source encapPk
attr title "packets encapsulated, count"
scalar TestNetwork.robotController.eth.vlanEncap encapPk:sum(packetBytes) 1083
attr interpolationmode none
attr source encapPk
attr title "packets encapsulated, sum(packetBytes)"
scalar TestNetwork.sink.trafGenApp packetReceived:count 7
attr interpolationmode none
attr source packetReceived
attr title "packets received, count"
scalar TestNetwork.sink.trafGenApp packetReceived:sum(packetBytes) 8188
attr interpolationmode none
attr source packetReceived
attr title "packets received, sum(packetBytes)"
statistic TestNetwork.sink.trafGenApp endToEndDelay:histogram
field count 7
field mean 0.00021126857142857
field stddev 9.9564721233405e-05
field min 6.648e-05
field max 0.00028208
field sum 0.00147888
field sqrsum 3.719196672e-07
attr interpolationmode none
attr source dataAge(packetReceived)
attr title "end-to-end delay, histogram"
attr unit s
bin	-inf	0
bin	1e-05	0
bin	1.5e-05	0
bin	2e-05	0
bin	2.5e-05	0
bin	3e-05	0
bin	3.5e-05	0
bin	4e-05	0
bin	4.5e-05	0
bin	5e-05	0
bin	5.5e-05	0
bin	6e-05	0
bin	6.5e-05	2
bin	7e-05	0
bin	7.5e-05	0
bin	8e-05	0
bin	8.5e-05	0
bin	9e-05	0
bin	9.5e-05	0
bin	0.0001	0
bin	0.000105	0
bin	0.00011	0
bin	0.000115	0
bin	0.00012	0
bin	0.000125	0
bin	0.00013	0
bin	0.000135	0
bin	0.00014	0
bin	0.000145	0
bin	0.00015	0
bin	0.000155	0
bin	0.00016	0
bin	0.000165	0
bin	0.00017	0
bin	0.000175	0
bin	0.00018	0
bin	0.000185	0
bin	0.00019	0
bin	0.000195	0
bin	0.0002	0
bin	0.000205	0
bin	0.00021	0
bin	0.000215	0
bin	0.00022	0
bin	0.000225	0
bin	0.00023	0
bin	0.000235	0
bin	0.00024	0
bin	0.000245	2
bin	0.00025	0
bin	0.000255	0
bin	0.00026	0
bin	0.000265	0
bin	0.00027	0
bin	0.000275	0
bin	0.00028	3
bin	0.000285	0
bin	0.00029	0
bin	0.000295	0
bin	0.0003	0
bin	0.000305	0
bin	0.00031	0
bin	0.000315	0
bin	0.00032	0
bin	0.000325	0
bin	0.00033	0
bin	0.000335	0
bin	0.00034	0
scalar TestNetwork.sink.trafGenApp packetSent:count 0
attr interpolationmode none
attr source packetSent
attr title "packets sent, count"
scalar TestNetwork.sink.trafGenApp packetSent:sum(packetBytes) 0
attr interpolationmode none
attr source packetSent
attr title "packets sent, sum(packetBytes)"
scalar TestNetwork.sink.eth.mac "simulated time" 0.000850704427
scalar TestNetwork.sink.eth.mac full-duplex 1
scalar TestNetwork.sink.eth.mac "frames/sec sent" 0
scalar TestNetwork.sink.eth.mac "frames/sec rcvd" 8228.4748707438
scalar TestNetwork.sink.eth.mac "bits/sec sent" 0
scalar TestNetwork.sink.eth.mac "bits/sec rcvd" 78382100.625885
scalar TestNetwork.sink.eth.mac "rx channel idle (%)" 100
scalar TestNetwork.sink.eth.mac "rx channel utilization (%)" 0
statistic TestNetwork.sink.eth.mac pMacDelay:histogram
field count 0
field mean -nan
field stddev -nan
field min -nan
field max -nan
field sum 0
field sqrsum 0
attr interpolationmode none
attr title "pMacDelay, histogram"
bin	-inf	0
bin	0	0
bin	1	0
statistic TestNetwork.sink.eth.mac eMacDelay:histogram
field count 0
field mean -nan
field stddev -nan
field min -nan
field max -nan
field sum 0
field sqrsum 0
attr interpolationmode none
attr title "eMacDelay, histogram"
bin	-inf	0
bin	0	0
bin	1	0
scalar TestNetwork.sink.eth.mac expressFramesEnqueued:count 0
attr interpolationmode none
attr source expressFrameEnqueuedWhileSendingPreemptableSignal
attr title "express frames enqueued, count"
scalar TestNetwork.sink.eth.mac mPacketsFull:count 0
attr interpolationmode none
attr source transmittedPreemptableFullSignal
attr title "mpackets full, count"
scalar TestNetwork.sink.eth.mac mPacketsFinal:count 0
attr interpolationmode none
attr source transmittedPreemptableFinalSignal
attr title "mPackets final, count"
scalar TestNetwork.sink.eth.mac mPacketsNonFinal:count 0
attr interpolationmode none
attr source transmittedPreemptableNonFinalSignal
attr title "mPackets non-final, count"
scalar TestNetwork.sink.eth.mac mPackets:count 0
attr interpolationmode none
attr source transmittedPreemptableFramePartSignal
attr title "mPackets, count"
scalar TestNetwork.sink.eth.mac preemptableFrames:count 0
attr interpolationmode none
attr source transmittedPreemptableFrameSignal
attr title "preemptableFrames, count"
scalar TestNetwork.sink.eth.mac expressFrames:count 0
attr interpolationmode none
attr source transmittedExpressFrameSignal
attr title "expressFrames, count"
scalar TestNetwork.sink.eth.mac preemptions:count 0
attr interpolationmode none
attr source preemptCurrentFrameSignal
attr title "preemptions, count"
scalar TestNetwork.sink.eth.mac rxPausePkUnits:count 0
attr interpolationmode none
attr title "pause units received, count"
scalar TestNetwork.sink.eth.mac rxPausePkUnits:sum 0
attr interpolationmode none
attr title "pause units received, sum"
scalar TestNetwork.sink.eth.mac txPausePkUnits:count 0
attr interpolationmode none
attr title "pause units sent, count"
scalar TestNetwork.sink.eth.mac txPausePkUnits:sum 0
attr interpolationmode none
attr title "pause units sent, sum"
scalar TestNetwork.sink.eth.mac rxPkOk:count 7
attr interpolationmode none
attr source rxPkOk
attr title "packets received OK, count"
scalar TestNetwork.sink.eth.mac rxPkOk:sum(packetBytes) 8335
attr interpolationmode none
attr source rxPkOk
attr title "packets received OK, sum(packetBytes)"
scalar TestNetwork.sink.eth.mac txPk:count 0
attr interpolationmode none
attr source packetSentToLower
attr title "packets transmitted, count"
scalar TestNetwork.sink.eth.mac txPk:sum(packetBytes) 0
attr interpolationmode none
attr source packetSentToLower
attr title "packets transmitted, sum(packetBytes)"
scalar TestNetwork.sink.eth.mac packetReceivedFromUpper:count 0
attr interpolationmode none
attr source packetReceivedFromUpper
attr title "packet bytes from higher layer, count"
scalar TestNetwork.sink.eth.mac packetReceivedFromUpper:sum(packetBytes) 0
attr interpolationmode none
attr source packetReceivedFromUpper
attr title "packet bytes from higher layer, sum(packetBytes)"
scalar TestNetwork.sink.eth.mac passedUpPk:count 7
attr interpolationmode none
attr source packetSentToUpper
attr title "packets passed to higher layer, count"
scalar TestNetwork.sink.eth.mac passedUpPk:sum(packetBytes) 8335
attr interpolationmode none
attr source packetSentToUpper
attr title "packets passed to higher layer, sum(packetBytes)"
scalar TestNetwork.sink.eth.mac packetDropIncorrectlyReceived:count 0
attr interpolationmode none
attr source packetDropReasonIsIncorrectlyReceived(packetDropped)
attr title "packet drop: incorrectly received, count"
scalar TestNetwork.sink.eth.mac packetDropIncorrectlyReceived:sum(packetBytes) 0
attr interpolationmode none
attr source packetDropReasonIsIncorrectlyReceived(packetDropped)
attr title "packet drop: incorrectly received, sum(packetBytes)"
scalar TestNetwork.sink.eth.mac packetDropInterfaceDown:count 0
attr interpolationmode none
attr source packetDropReasonIsInterfaceDown(packetDropped)
attr title "packet drop: interface down, count"
scalar TestNetwork.sink.eth.mac packetDropInterfaceDown:sum(packetBytes) 0
attr interpolationmode none
attr source packetDropReasonIsInterfaceDown(packetDropped)
attr title "packet drop: interface down, sum(packetBytes)"
scalar TestNetwork.sink.eth.mac packetDropNotAddressedToUs:count 0
attr interpolationmode none
attr source packetDropReasonIsNotAddressedToUs(packetDropped)
attr title "packet drop: not addressed to us, count"
scalar TestNetwork.sink.eth.mac packetDropNotAddressedToUs:sum(packetBytes) 0
attr interpolationmode none
attr source packetDropReasonIsNotAddressedToUs(packetDropped)
attr title "packet drop: not addressed to us, sum(packetBytes)"
scalar TestNetwork.sink.eth.queuing.queues[0] dropPk:count 0
attr interpolationmode none
attr source dropPkByQueue
attr title "dropped packets, count"
scalar TestNetwork.sink.eth.queuing.queues[0] dropPk:sum(packetBytes) 0
attr interpolationmode none
attr source dropPkByQueue
attr title "dropped packets, sum(packetBytes)"
scalar TestNetwork.sink.eth.queuing.queues[0] rcvdPk:count 0
attr interpolationmode none
attr title "received packets, count"
scalar TestNetwork.sink.eth.queuing.queues[0] rcvdPk:sum(packetBytes) 0
attr interpolationmode none
attr title "received packets, sum(packetBytes)"
statistic TestNetwork.sink.eth.queuing.queues[0] queueingTime:histogram
field count 0
field mean -nan
field stddev -nan
field min -nan
field max -nan
field sum 0
field sqrsum 0
attr interpolationmode none
attr title "queueing time, histogram"
bin	-inf	0
bin	0	0
bin	1	0
scalar TestNetwork.sink.eth.queuing.queues[0] queueLength:max 0
attr interpolationmode sample-hold
attr title "queue length, max"
scalar TestNetwork.sink.eth.queuing.queues[0] queueLength:timeavg 0
attr interpolationmode sample-hold
attr title "queue length, timeavg"
scalar TestNetwork.sink.eth.queuing.queues[1] dropPk:count 0
attr interpolationmode none
attr source dropPkByQueue
attr title "dropped packets, count"
scalar TestNetwork.sink.eth.queuing.queues[1] dropPk:sum(packetBytes) 0
attr interpolationmode none
attr source dropPkByQueue
attr title "dropped packets, sum(packetBytes)"
scalar TestNetwork.sink.eth.queuing.queues[1] rcvdPk:count 0
attr interpolationmode none
attr title "received packets, count"
scalar TestNetwork.sink.eth.queuing.queues[1] rcvdPk:sum(packetBytes) 0
attr interpolationmode none
attr title "received packets, sum(packetBytes)"
statistic TestNetwork.sink.eth.queuing.queues[1] queueingTime:histogram
field count 0
field mean -nan
field stddev -nan
field min -nan
field max -nan
field sum 0
field sqrsum 0
attr interpolationmode none
attr title "queueing time, histogram"
bin	-inf	0
bin	0	0
bin	1	0
scalar TestNetwork.sink.eth.queuing.queues[1] queueLength:max 0
attr interpolationmode sample-hold
attr title "queue length, max"
scalar TestNetwork.sink.eth.queuing.queues[1] queueLength:timeavg 0
attr interpolationmode sample-hold
attr title "queue length, timeavg"
scalar TestNetwork.sink.eth.queuing.queues[2] dropPk:count 0
attr interpolationmode none
attr source dropPkByQueue
attr title "dropped packets, count"
scalar TestNetwork.sink.eth.queuing.queues[2] dropPk:sum(packetBytes) 0
attr interpolationmode none
attr source dropPkByQueue
attr title "dropped packets, sum(packetBytes)"
scalar TestNetwork.sink.eth.queuing.queues[2] rcvdPk:count 0
attr interpolationmode none
attr title "received packets, count"
scalar TestNetwork.sink.eth.queuing.queues[2] rcvdPk:sum(packetBytes) 0
attr interpolationmode none
attr title "received packets, sum(packetBytes)"
statistic TestNetwork.sink.eth.queuing.queues[2] queueingTime:histogram
field count 0
field mean -nan
field stddev -nan
field min -nan
field max -nan
field sum 0
field sqrsum 0
attr interpolationmode none
attr title "queueing time, histogram"
bin	-inf	0
bin	0	0
bin	1	0
scalar TestNetwork.sink.eth.queuing.queues[2] queueLength:max 0
attr interpolationmode sample-hold
attr title "queue length, max"
scalar TestNetwork.sink.eth.queuing.queues[2] queueLength:timeavg 0
attr interpolationmode sample-hold
attr title "queue length, timeavg"
scalar TestNetwork.sink.eth.queuing.queues[3] dropPk:count 0
attr interpolationmode none
attr source dropPkByQueue
attr title "dropped packets, count"
scalar TestNetwork.sink.eth.queuing.queues[3] dropPk:sum(packetBytes) 0
attr interpolationmode none
attr source dropPkByQueue
attr title "dropped packets, sum(packetBytes)"
scalar TestNetwork.sink.eth.queuing.queues[3] rcvdPk:count 0
attr interpolationmode none
attr title "received packets, count"
scalar TestNetwork.sink.eth.queuing.queues[3] rcvdPk:sum(packetBytes) 0
attr interpolationmode none
attr title "received packets, sum(packetBytes)"
statistic TestNetwork.sink.eth.queuing.queues[3] queueingTime:histogram
field count 0
field mean -nan
field stddev -nan
field min -nan
field max -nan
field sum 0
field sqrsum 0
attr interpolationmode none
attr title "queueing time, histogram"
bin	-inf	0
bin	0	0
bin	1	0
scalar TestNetwork.sink.eth.queuing.queues[3] queueLength:max 0
attr interpolationmode sample-hold
attr title "queue length, max"
scalar TestNetwork.sink.eth.queuing.queues[3] queueLength:timeavg 0
attr interpolationmode sample-hold
attr title "queue length, timeavg"
scalar TestNetwork.sink.eth.queuing.queues[4] dropPk:count 0
attr interpolationmode none
attr source dropPkByQueue
attr title "dropped packets, count"
scalar TestNetwork.sink.eth.queuing.queues[4] dropPk:sum(packetBytes) 0
attr interpolationmode none
attr source dropPkByQueue
attr title "dropped packets, sum(packetBytes)"
scalar TestNetwork.sink.eth.queuing.queues[4] rcvdPk:count 0
attr interpolationmode none
attr title "received packets, count"
scalar TestNetwork.sink.eth.queuing.queues[4] rcvdPk:sum(packetBytes) 0
attr interpolationmode none
attr title "received packets, sum(packetBytes)"
statistic TestNetwork.sink.eth.queuing.queues[4] queueingTime:histogram
field count 0
field mean -nan
field stddev -nan
field min -nan
field max -nan
field sum 0
field sqrsum 0
attr interpolationmode none
attr title "queueing time, histogram"
bin	-inf	0
bin	0	0
bin	1	0
scalar TestNetwork.sink.eth.queuing.queues[4] queueLength:max 0
attr interpolationmode sample-hold
attr title "queue length, max"
scalar TestNetwork.sink.eth.queuing.queues[4] queueLength:timeavg 0
attr interpolationmode sample-hold
attr title "queue length, timeavg"
scalar TestNetwork.sink.eth.queuing.queues[5] dropPk:count 0
attr interpolationmode none
attr source dropPkByQueue
attr title "dropped packets, count"
scalar TestNetwork.sink.eth.queuing.queues[5] dropPk:sum(packetBytes) 0
attr interpolationmode none
attr source dropPkByQueue
attr title "dropped packets, sum(packetBytes)"
scalar TestNetwork.sink.eth.queuing.queues[5] rcvdPk:count 0
attr interpolationmode none
attr title "received packets, count"
scalar TestNetwork.sink.eth.queuing.queues[5] rcvdPk:sum(packetBytes) 0
attr interpolationmode none
attr title "received packets, sum(packetBytes)"
statistic TestNetwork.sink.eth.queuing.queues[5] queueingTime:histogram
field count 0
field mean -nan
field stddev -nan
field min -nan
field max -nan
field sum 0
field sqrsum 0
attr interpolationmode none
attr title "queueing time, histogram"
bin	-inf	0
bin	0	0
bin	1	0
scalar TestNetwork.sink.eth.queuing.queues[5] queueLength:max 0
attr interpolationmode sample-hold
attr title "queue length, max"
scalar TestNetwork.sink.eth.queuing.queues[5] queueLength:timeavg 0
attr interpolationmode sample-hold
attr title "queue length, timeavg"
scalar TestNetwork.sink.eth.queuing.queues[6] dropPk:count 0
attr interpolationmode none
attr source dropPkByQueue
attr title "dropped packets, count"
scalar TestNetwork.sink.eth.queuing.queues[6] dropPk:sum(packetBytes) 0
attr interpolationmode none
attr source dropPkByQueue
attr title "dropped packets, sum(packetBytes)"
scalar TestNetwork.sink.eth.queuing.queues[6] rcvdPk:count 0
attr interpolationmode none
attr title "received packets, count"
scalar TestNetwork.sink.eth.queuing.queues[6] rcvdPk:sum(packetBytes) 0
attr interpolationmode none
attr title "received packets, sum(packetBytes)"
statistic TestNetwork.sink.eth.queuing.queues[6] queueingTime:histogram
field count 0
field mean -nan
field stddev -nan
field min -nan
field max -nan
field sum 0
field sqrsum 0
attr interpolationmode none
attr title "queueing time, histogram"
bin	-inf	0
bin	0	0
bin	1	0
scalar TestNetwork.sink.eth.queuing.queues[6] queueLength:max 0
attr interpolationmode sample-hold
attr title "queue length, max"
scalar TestNetwork.sink.eth.queuing.queues[6] queueLength:timeavg 0
attr interpolationmode sample-hold
attr title "queue length, timeavg"
scalar TestNetwork.sink.eth.queuing.queues[7] dropPk:count 0
attr interpolationmode none
attr source dropPkByQueue
attr title "dropped packets, count"
scalar TestNetwork.sink.eth.queuing.queues[7] dropPk:sum(packetBytes) 0
attr interpolationmode none
attr source dropPkByQueue
attr title "dropped packets, sum(packetBytes)"
scalar TestNetwork.sink.eth.queuing.queues[7] rcvdPk:count 0
attr interpolationmode none
attr title "received packets, count"
scalar TestNetwork.sink.eth.queuing.queues[7] rcvdPk:sum(packetBytes) 0
attr interpolationmode none
attr title "received packets, sum(packetBytes)"
statistic TestNetwork.sink.eth.queuing.queues[7] queueingTime:histogram
field count 0
field mean -nan
field stddev -nan
field min -nan
field max -nan
field sum 0
field sqrsum 0
attr interpolationmode none
attr title "queueing time, histogram"
bin	-inf	0
bin	0	0
bin	1	0
scalar TestNetwork.sink.eth.queuing.queues[7] queueLength:max 0
attr interpolationmode sample-hold
attr title "queue length, max"
scalar TestNetwork.sink.eth.queuing.queues[7] queueLength:timeavg 0
attr interpolationmode sample-hold
attr title "queue length, timeavg"
scalar TestNetwork.sink.eth.vlanEncapE decapPk:count 7
attr interpolationmode none
attr source decapPk
attr title "packets decapsulated, count"
scalar TestNetwork.sink.eth.vlanEncapE decapPk:sum(packetBytes) 8237
attr interpolationmode none
attr source decapPk
attr title "packets decapsulated, sum(packetBytes)"
scalar TestNetwork.sink.eth.vlanEncapE encapPk:count 0
attr interpolationmode none
attr source encapPk
attr title "packets encapsulated, count"
scalar TestNetwork.sink.eth.vlanEncapE encapPk:sum(packetBytes) 0
attr interpolationmode none
attr source encapPk
attr title "packets encapsulated, sum(packetBytes)"
scalar TestNetwork.sink.eth.etherEncapE pauseSent:count 0
attr title "pause sent, count"
scalar TestNetwork.sink.eth.etherEncapE pauseSent:sum 0
attr title "pause sent, sum"
scalar TestNetwork.sink.eth.etherEncapE decapPk:count 0
attr interpolationmode none
attr source decapPk
attr title "packets decapsulated, count"
scalar TestNetwork.sink.eth.etherEncapE decapPk:sum(packetBytes) 0
attr interpolationmode none
attr source decapPk
attr title "packets decapsulated, sum(packetBytes)"
scalar TestNetwork.sink.eth.etherEncapE encapPk:count 0
attr interpolationmode none
attr source encapPk
attr title "packets encapsulated, count"
scalar TestNetwork.sink.eth.etherEncapE encapPk:sum(packetBytes) 0
attr interpolationmode none
attr source encapPk
attr title "packets encapsulated, sum(packetBytes)"
scalar TestNetwork.sink.eth.vlanEncapP decapPk:count 0
attr interpolationmode none
attr source decapPk
attr title "packets decapsulated, count"
scalar TestNetwork.sink.eth.vlanEncapP decapPk:sum(packetBytes) 0
attr interpolationmode none
attr source decapPk
attr title "packets decapsulated, sum(packetBytes)"
scalar TestNetwork.sink.eth.vlanEncapP encapPk:count 0
attr interpolationmode none
attr source encapPk
attr title "packets encapsulated, count"
scalar TestNetwork.sink.eth.vlanEncapP encapPk:sum(packetBytes) 0
attr interpolationmode none
attr source encapPk
attr title "packets encapsulated, sum(packetBytes)"
scalar TestNetwork.sink.eth.etherEncapP pauseSent:count 0
attr title "pause sent, count"
scalar TestNetwork.sink.eth.etherEncapP pauseSent:sum 0
attr title "pause sent, sum"
scalar TestNetwork.sink.eth.etherEncapP decapPk:count 0
attr interpolationmode none
attr source decapPk
attr title "packets decapsulated, count"
scalar TestNetwork.sink.eth.etherEncapP decapPk:sum(packetBytes) 0
attr interpolationmode none
attr source decapPk
attr title "packets decapsulated, sum(packetBytes)"
scalar TestNetwork.sink.eth.etherEncapP encapPk:count 0
attr interpolationmode none
attr source encapPk
attr title "packets encapsulated, count"
scalar TestNetwork.sink.eth.etherEncapP encapPk:sum(packetBytes) 0
attr interpolationmode none
attr source encapPk
attr title "packets encapsulated, sum(packetBytes)"
scalar TestNetwork.sink1.trafGenApp packetReceived:count 0
attr interpolationmode none
attr source packetReceived
attr title "packets received, count"
scalar TestNetwork.sink1.trafGenApp packetReceived:sum(packetBytes) 0
attr interpolationmode none
attr source packetReceived
attr title "packets received, sum(packetBytes)"
statistic TestNetwork.sink1.trafGenApp endToEndDelay:histogram
field count 0
field mean -nan
field stddev -nan
field min -nan
field max -nan
field sum 0
field sqrsum 0
attr interpolationmode none
attr source dataAge(packetReceived)
attr title "end-to-end delay, histogram"
attr unit s
bin	-inf	0
bin	0	0
bin	1	0
scalar TestNetwork.sink1.trafGenApp packetSent:count 0
attr interpolationmode none
attr source packetSent
attr title "packets sent, count"
scalar TestNetwork.sink1.trafGenApp packetSent:sum(packetBytes) 0
attr interpolationmode none
attr source packetSent
attr title "packets sent, sum(packetBytes)"
scalar TestNetwork.sink1.eth.mac "simulated time" 0.000850704427
scalar TestNetwork.sink1.eth.mac full-duplex 1
scalar TestNetwork.sink1.eth.mac "frames/sec sent" 0
scalar TestNetwork.sink1.eth.mac "frames/sec rcvd" 0
scalar TestNetwork.sink1.eth.mac "bits/sec sent" 0
scalar TestNetwork.sink1.eth.mac "bits/sec rcvd" 0
scalar TestNetwork.sink1.eth.mac "rx channel idle (%)" 100
scalar TestNetwork.sink1.eth.mac "rx channel utilization (%)" 0
statistic TestNetwork.sink1.eth.mac pMacDelay:histogram
field count 0
field mean -nan
field stddev -nan
field min -nan
field max -nan
field sum 0
field sqrsum 0
attr interpolationmode none
attr title "pMacDelay, histogram"
bin	-inf	0
bin	0	0
bin	1	0
statistic TestNetwork.sink1.eth.mac eMacDelay:histogram
field count 0
field mean -nan
field stddev -nan
field min -nan
field max -nan
field sum 0
field sqrsum 0
attr interpolationmode none
attr title "eMacDelay, histogram"
bin	-inf	0
bin	0	0
bin	1	0
scalar TestNetwork.sink1.eth.mac expressFramesEnqueued:count 0
attr interpolationmode none
attr source expressFrameEnqueuedWhileSendingPreemptableSignal
attr title "express frames enqueued, count"
scalar TestNetwork.sink1.eth.mac mPacketsFull:count 0
attr interpolationmode none
attr source transmittedPreemptableFullSignal
attr title "mpackets full, count"
scalar TestNetwork.sink1.eth.mac mPacketsFinal:count 0
attr interpolationmode none
attr source transmittedPreemptableFinalSignal
attr title "mPackets final, count"
scalar TestNetwork.sink1.eth.mac mPacketsNonFinal:count 0
attr interpolationmode none
attr source transmittedPreemptableNonFinalSignal
attr title "mPackets non-final, count"
scalar TestNetwork.sink1.eth.mac mPackets:count 0
attr interpolationmode none
attr source transmittedPreemptableFramePartSignal
attr title "mPackets, count"
scalar TestNetwork.sink1.eth.mac preemptableFrames:count 0
attr interpolationmode none
attr source transmittedPreemptableFrameSignal
attr title "preemptableFrames, count"
scalar TestNetwork.sink1.eth.mac expressFrames:count 0
attr interpolationmode none
attr source transmittedExpressFrameSignal
attr title "expressFrames, count"
scalar TestNetwork.sink1.eth.mac preemptions:count 0
attr interpolationmode none
attr source preemptCurrentFrameSignal
attr title "preemptions, count"
scalar TestNetwork.sink1.eth.mac rxPausePkUnits:count 0
attr interpolationmode none
attr title "pause units received, count"
scalar TestNetwork.sink1.eth.mac rxPausePkUnits:sum 0
attr interpolationmode none
attr title "pause units received, sum"
scalar TestNetwork.sink1.eth.mac txPausePkUnits:count 0
attr interpolationmode none
attr title "pause units sent, count"
scalar TestNetwork.sink1.eth.mac txPausePkUnits:sum 0
attr interpolationmode none
attr title "pause units sent, sum"
scalar TestNetwork.sink1.eth.mac rxPkOk:count 0
attr interpolationmode none
attr source rxPkOk
attr title "packets received OK, count"
scalar TestNetwork.sink1.eth.mac rxPkOk:sum(packetBytes) 0
attr interpolationmode none
attr source rxPkOk
attr title "packets received OK, sum(packetBytes)"
scalar TestNetwork.sink1.eth.mac txPk:count 0
attr interpolationmode none
attr source packetSentToLower
attr title "packets transmitted, count"
scalar TestNetwork.sink1.eth.mac txPk:sum(packetBytes) 0
attr interpolationmode none
attr source packetSentToLower
attr title "packets transmitted, sum(packetBytes)"
scalar TestNetwork.sink1.eth.mac packetReceivedFromUpper:count 0
attr interpolationmode none
attr source packetReceivedFromUpper
attr title "packet bytes from higher layer, count"
scalar TestNetwork.sink1.eth.mac packetReceivedFromUpper:sum(packetBytes) 0
attr interpolationmode none
attr source packetReceivedFromUpper
attr title "packet bytes from higher layer, sum(packetBytes)"
scalar TestNetwork.sink1.eth.mac passedUpPk:count 0
attr interpolationmode none
attr source packetSentToUpper
attr title "packets passed to higher layer, count"
scalar TestNetwork.sink1.eth.mac passedUpPk:sum(packetBytes) 0
attr interpolationmode none
attr source packetSentToUpper
attr title "packets passed to higher layer, sum(packetBytes)"
scalar TestNetwork.sink1.eth.mac packetDropIncorrectlyReceived:count 0
attr interpolationmode none
attr source packetDropReasonIsIncorrectlyReceived(packetDropped)
attr title "packet drop: incorrectly received, count"
scalar TestNetwork.sink1.eth.mac packetDropIncorrectlyReceived:sum(packetBytes) 0
attr interpolationmode none
attr source packetDropReasonIsIncorrectlyReceived(packetDropped)
attr title "packet drop: incorrectly received, sum(packetBytes)"
scalar TestNetwork.sink1.eth.mac packetDropInterfaceDown:count 0
attr interpolationmode none
attr source packetDropReasonIsInterfaceDown(packetDropped)
attr title "packet drop: interface down, count"
scalar TestNetwork.sink1.eth.mac packetDropInterfaceDown:sum(packetBytes) 0
attr interpolationmode none
attr source packetDropReasonIsInterfaceDown(packetDropped)
attr title "packet drop: interface down, sum(packetBytes)"
scalar TestNetwork.sink1.eth.mac packetDropNotAddressedToUs:count 0
attr interpolationmode none
attr source packetDropReasonIsNotAddressedToUs(packetDropped)
attr title "packet drop: not addressed to us, count"
scalar TestNetwork.sink1.eth.mac packetDropNotAddressedToUs:sum(packetBytes) 0
attr interpolationmode none
attr source packetDropReasonIsNotAddressedToUs(packetDropped)
attr title "packet drop: not addressed to us, sum(packetBytes)"
scalar TestNetwork.sink1.eth.queuing.queues[0] dropPk:count 0
attr interpolationmode none
attr source dropPkByQueue
attr title "dropped packets, count"
scalar TestNetwork.sink1.eth.queuing.queues[0] dropPk:sum(packetBytes) 0
attr interpolationmode none
attr source dropPkByQueue
attr title "dropped packets, sum(packetBytes)"
scalar TestNetwork.sink1.eth.queuing.queues[0] rcvdPk:count 0
attr interpolationmode none
attr title "received packets, count"
scalar TestNetwork.sink1.eth.queuing.queues[0] rcvdPk:sum(packetBytes) 0
attr interpolationmode none
attr title "received packets, sum(packetBytes)"
statistic TestNetwork.sink1.eth.queuing.queues[0] queueingTime:histogram
field count 0
field mean -nan
field stddev -nan
field min -nan
field max -nan
field sum 0
field sqrsum 0
attr interpolationmode none
attr title "queueing time, histogram"
bin	-inf	0
bin	0	0
bin	1	0
scalar TestNetwork.sink1.eth.queuing.queues[0] queueLength:max 0
attr interpolationmode sample-hold
attr title "queue length, max"
scalar TestNetwork.sink1.eth.queuing.queues[0] queueLength:timeavg 0
attr interpolationmode sample-hold
attr title "queue length, timeavg"
scalar TestNetwork.sink1.eth.queuing.queues[1] dropPk:count 0
attr interpolationmode none
attr source dropPkByQueue
attr title "dropped packets, count"
scalar TestNetwork.sink1.eth.queuing.queues[1] dropPk:sum(packetBytes) 0
attr interpolationmode none
attr source dropPkByQueue
attr title "dropped packets, sum(packetBytes)"
scalar TestNetwork.sink1.eth.queuing.queues[1] rcvdPk:count 0
attr interpolationmode none
attr title "received packets, count"
scalar TestNetwork.sink1.eth.queuing.queues[1] rcvdPk:sum(packetBytes) 0
attr interpolationmode none
attr title "received packets, sum(packetBytes)"
statistic TestNetwork.sink1.eth.queuing.queues[1] queueingTime:histogram
field count 0
field mean -nan
field stddev -nan
field min -nan
field max -nan
field sum 0
field sqrsum 0
attr interpolationmode none
attr title "queueing time, histogram"
bin	-inf	0
bin	0	0
bin	1	0
scalar TestNetwork.sink1.eth.queuing.queues[1] queueLength:max 0
attr interpolationmode sample-hold
attr title "queue length, max"
scalar TestNetwork.sink1.eth.queuing.queues[1] queueLength:timeavg 0
attr interpolationmode sample-hold
attr title "queue length, timeavg"
scalar TestNetwork.sink1.eth.queuing.queues[2] dropPk:count 0
attr interpolationmode none
attr source dropPkByQueue
attr title "dropped packets, count"
scalar TestNetwork.sink1.eth.queuing.queues[2] dropPk:sum(packetBytes) 0
attr interpolationmode none
attr source dropPkByQueue
attr title "dropped packets, sum(packetBytes)"
scalar TestNetwork.sink1.eth.queuing.queues[2] rcvdPk:count 0
attr interpolationmode none
attr title "received packets, count"
scalar TestNetwork.sink1.eth.queuing.queues[2] rcvdPk:sum(packetBytes) 0
attr interpolationmode none
attr title "received packets, sum(packetBytes)"
statistic TestNetwork.sink1.eth.queuing.queues[2] queueingTime:histogram
field count 0
field mean -nan
field stddev -nan
field min -nan
field max -nan
field sum 0
field sqrsum 0
attr interpolationmode none
attr title "queueing time, histogram"
bin	-inf	0
bin	0	0
bin	1	0
scalar TestNetwork.sink1.eth.queuing.queues[2] queueLength:max 0
attr interpolationmode sample-hold
attr title "queue length, max"
scalar TestNetwork.sink1.eth.queuing.queues[2] queueLength:timeavg 0
attr interpolationmode sample-hold
attr title "queue length, timeavg"
scalar TestNetwork.sink1.eth.queuing.queues[3] dropPk:count 0
attr interpolationmode none
attr source dropPkByQueue
attr title "dropped packets, count"
scalar TestNetwork.sink1.eth.queuing.queues[3] dropPk:sum(packetBytes) 0
attr interpolationmode none
attr source dropPkByQueue
attr title "dropped packets, sum(packetBytes)"
scalar TestNetwork.sink1.eth.queuing.queues[3] rcvdPk:count 0
attr interpolationmode none
attr title "received packets, count"
scalar TestNetwork.sink1.eth.queuing.queues[3] rcvdPk:sum(packetBytes) 0
attr interpolationmode none
attr title "received packets, sum(packetBytes)"
statistic TestNetwork.sink1.eth.queuing.queues[3] queueingTime:histogram
field count 0
field mean -nan
field stddev -nan
field min -nan
field max -nan
field sum 0
field sqrsum 0
attr interpolationmode none
attr title "queueing time, histogram"
bin	-inf	0
bin	0	0
bin	1	0
scalar TestNetwork.sink1.eth.queuing.queues[3] queueLength:max 0
attr interpolationmode sample-hold
attr title "queue length, max"
scalar TestNetwork.sink1.eth.queuing.queues[3] queueLength:timeavg 0
attr interpolationmode sample-hold
attr title "queue length, timeavg"
scalar TestNetwork.sink1.eth.queuing.queues[4] dropPk:count 0
attr interpolationmode none
attr source dropPkByQueue
attr title "dropped packets, count"
scalar TestNetwork.sink1.eth.queuing.queues[4] dropPk:sum(packetBytes) 0
attr interpolationmode none
attr source dropPkByQueue
attr title "dropped packets, sum(packetBytes)"
scalar TestNetwork.sink1.eth.queuing.queues[4] rcvdPk:count 0
attr interpolationmode none
attr title "received packets, count"
scalar TestNetwork.sink1.eth.queuing.queues[4] rcvdPk:sum(packetBytes) 0
attr interpolationmode none
attr title "received packets, sum(packetBytes)"
statistic TestNetwork.sink1.eth.queuing.queues[4] queueingTime:histogram
field count 0
field mean -nan
field stddev -nan
field min -nan
field max -nan
field sum 0
field sqrsum 0
attr interpolationmode none
attr title "queueing time, histogram"
bin	-inf	0
bin	0	0
bin	1	0
scalar TestNetwork.sink1.eth.queuing.queues[4] queueLength:max 0
attr interpolationmode sample-hold
attr title "queue length, max"
scalar TestNetwork.sink1.eth.queuing.queues[4] queueLength:timeavg 0
attr interpolationmode sample-hold
attr title "queue length, timeavg"
scalar TestNetwork.sink1.eth.queuing.queues[5] dropPk:count 0
attr interpolationmode none
attr source dropPkByQueue
attr title "dropped packets, count"
scalar TestNetwork.sink1.eth.queuing.queues[5] dropPk:sum(packetBytes) 0
attr interpolationmode none
attr source dropPkByQueue
attr title "dropped packets, sum(packetBytes)"
scalar TestNetwork.sink1.eth.queuing.queues[5] rcvdPk:count 0
attr interpolationmode none
attr title "received packets, count"
scalar TestNetwork.sink1.eth.queuing.queues[5] rcvdPk:sum(packetBytes) 0
attr interpolationmode none
attr title "received packets, sum(packetBytes)"
statistic TestNetwork.sink1.eth.queuing.queues[5] queueingTime:histogram
field count 0
field mean -nan
field stddev -nan
field min -nan
field max -nan
field sum 0
field sqrsum 0
attr interpolationmode none
attr title "queueing time, histogram"
bin	-inf	0
bin	0	0
bin	1	0
scalar TestNetwork.sink1.eth.queuing.queues[5] queueLength:max 0
attr interpolationmode sample-hold
attr title "queue length, max"
scalar TestNetwork.sink1.eth.queuing.queues[5] queueLength:timeavg 0
attr interpolationmode sample-hold
attr title "queue length, timeavg"
scalar TestNetwork.sink1.eth.queuing.queues[6] dropPk:count 0
attr interpolationmode none
attr source dropPkByQueue
attr title "dropped packets, count"
scalar TestNetwork.sink1.eth.queuing.queues[6] dropPk:sum(packetBytes) 0
attr interpolationmode none
attr source dropPkByQueue
attr title "dropped packets, sum(packetBytes)"
scalar TestNetwork.sink1.eth.queuing.queues[6] rcvdPk:count 0
attr interpolationmode none
attr title "received packets, count"
scalar TestNetwork.sink1.eth.queuing.queues[6] rcvdPk:sum(packetBytes) 0
attr interpolationmode none
attr title "received packets, sum(packetBytes)"
statistic TestNetwork.sink1.eth.queuing.queues[6] queueingTime:histogram
field count 0
field mean -nan
field stddev -nan
field min -nan
field max -nan
field sum 0
field sqrsum 0
attr interpolationmode none
attr title "queueing time, histogram"
bin	-inf	0
bin	0	0
bin	1	0
scalar TestNetwork.sink1.eth.queuing.queues[6] queueLength:max 0
attr interpolationmode sample-hold
attr title "queue length, max"
scalar TestNetwork.sink1.eth.queuing.queues[6] queueLength:timeavg 0
attr interpolationmode sample-hold
attr title "queue length, timeavg"
scalar TestNetwork.sink1.eth.queuing.queues[7] dropPk:count 0
attr interpolationmode none
attr source dropPkByQueue
attr title "dropped packets, count"
scalar TestNetwork.sink1.eth.queuing.queues[7] dropPk:sum(packetBytes) 0
attr interpolationmode none
attr source dropPkByQueue
attr title "dropped packets, sum(packetBytes)"
scalar TestNetwork.sink1.eth.queuing.queues[7] rcvdPk:count 0
attr interpolationmode none
attr title "received packets, count"
scalar TestNetwork.sink1.eth.queuing.queues[7] rcvdPk:sum(packetBytes) 0
attr interpolationmode none
attr title "received packets, sum(packetBytes)"
statistic TestNetwork.sink1.eth.queuing.queues[7] queueingTime:histogram
field count 0
field mean -nan
field stddev -nan
field min -nan
field max -nan
field sum 0
field sqrsum 0
attr interpolationmode none
attr title "queueing time, histogram"
bin	-inf	0
bin	0	0
bin	1	0
scalar TestNetwork.sink1.eth.queuing.queues[7] queueLength:max 0
attr interpolationmode sample-hold
attr title "queue length, max"
scalar TestNetwork.sink1.eth.queuing.queues[7] queueLength:timeavg 0
attr interpolationmode sample-hold
attr title "queue length, timeavg"
scalar TestNetwork.sink1.eth.vlanEncapE decapPk:count 0
attr interpolationmode none
attr source decapPk
attr title "packets decapsulated, count"
scalar TestNetwork.sink1.eth.vlanEncapE decapPk:sum(packetBytes) 0
attr interpolationmode none
attr source decapPk
attr title "packets decapsulated, sum(packetBytes)"
scalar TestNetwork.sink1.eth.vlanEncapE encapPk:count 0
attr interpolationmode none
attr source encapPk
attr title "packets encapsulated, count"
scalar TestNetwork.sink1.eth.vlanEncapE encapPk:sum(packetBytes) 0
attr interpolationmode none
attr source encapPk
attr title "packets encapsulated, sum(packetBytes)"
scalar TestNetwork.sink1.eth.etherEncapE pauseSent:count 0
attr title "pause sent, count"
scalar TestNetwork.sink1.eth.etherEncapE pauseSent:sum 0
attr title "pause sent, sum"
scalar TestNetwork.sink1.eth.etherEncapE decapPk:count 0
attr interpolationmode none
attr source decapPk
attr title "packets decapsulated, count"
scalar TestNetwork.sink1.eth.etherEncapE decapPk:sum(packetBytes) 0
attr interpolationmode none
attr source decapPk
attr title "packets decapsulated, sum(packetBytes)"
scalar TestNetwork.sink1.eth.etherEncapE encapPk:count 0
attr interpolationmode none
attr source encapPk
attr title "packets encapsulated, count"
scalar TestNetwork.sink1.eth.etherEncapE encapPk:sum(packetBytes) 0
attr interpolationmode none
attr source encapPk
attr title "packets encapsulated, sum(packetBytes)"
scalar TestNetwork.sink1.eth.vlanEncapP decapPk:count 0
attr interpolationmode none
attr source decapPk
attr title "packets decapsulated, count"
scalar TestNetwork.sink1.eth.vlanEncapP decapPk:sum(packetBytes) 0
attr interpolationmode none
attr source decapPk
attr title "packets decapsulated, sum(packetBytes)"
scalar TestNetwork.sink1.eth.vlanEncapP encapPk:count 0
attr interpolationmode none
attr source encapPk
attr title "packets encapsulated, count"
scalar TestNetwork.sink1.eth.vlanEncapP encapPk:sum(packetBytes) 0
attr interpolationmode none
attr source encapPk
attr title "packets encapsulated, sum(packetBytes)"
scalar TestNetwork.sink1.eth.etherEncapP pauseSent:count 0
attr title "pause sent, count"
scalar TestNetwork.sink1.eth.etherEncapP pauseSent:sum 0
attr title "pause sent, sum"
scalar TestNetwork.sink1.eth.etherEncapP decapPk:count 0
attr interpolationmode none
attr source decapPk
attr title "packets decapsulated, count"
scalar TestNetwork.sink1.eth.etherEncapP decapPk:sum(packetBytes) 0
attr interpolationmode none
attr source decapPk
attr title "packets decapsulated, sum(packetBytes)"
scalar TestNetwork.sink1.eth.etherEncapP encapPk:count 0
attr interpolationmode none
attr source encapPk
attr title "packets encapsulated, count"
scalar TestNetwork.sink1.eth.etherEncapP encapPk:sum(packetBytes) 0
attr interpolationmode none
attr source encapPk
attr title "packets encapsulated, sum(packetBytes)"
scalar TestNetwork.switchA.eth[0].mac "simulated time" 0.000850704427
scalar TestNetwork.switchA.eth[0].mac full-duplex 1
scalar TestNetwork.switchA.eth[0].mac "frames/sec sent" 0
scalar TestNetwork.switchA.eth[0].mac "frames/sec rcvd" 7052.9784606375
scalar TestNetwork.switchA.eth[0].mac "bits/sec sent" 0
scalar TestNetwork.switchA.eth[0].mac "bits/sec rcvd" 85594946.598297
scalar TestNetwork.switchA.eth[0].mac "rx channel idle (%)" 100
scalar TestNetwork.switchA.eth[0].mac "rx channel utilization (%)" 0
statistic TestNetwork.switchA.eth[0].mac pMacDelay:histogram
field count 0
field mean -nan
field stddev -nan
field min -nan
field max -nan
field sum 0
field sqrsum 0
attr interpolationmode none
attr title "pMacDelay, histogram"
bin	-inf	0
bin	0	0
bin	1	0
statistic TestNetwork.switchA.eth[0].mac eMacDelay:histogram
field count 0
field mean -nan
field stddev -nan
field min -nan
field max -nan
field sum 0
field sqrsum 0
attr interpolationmode none
attr title "eMacDelay, histogram"
bin	-inf	0
bin	0	0
bin	1	0
scalar TestNetwork.switchA.eth[0].mac expressFramesEnqueued:count 0
attr interpolationmode none
attr source expressFrameEnqueuedWhileSendingPreemptableSignal
attr title "express frames enqueued, count"
scalar TestNetwork.switchA.eth[0].mac mPacketsFull:count 0
attr interpolationmode none
attr source transmittedPreemptableFullSignal
attr title "mpackets full, count"
scalar TestNetwork.switchA.eth[0].mac mPacketsFinal:count 0
attr interpolationmode none
attr source transmittedPreemptableFinalSignal
attr title "mPackets final, count"
scalar TestNetwork.switchA.eth[0].mac mPacketsNonFinal:count 0
attr interpolationmode none
attr source transmittedPreemptableNonFinalSignal
attr title "mPackets non-final, count"
scalar TestNetwork.switchA.eth[0].mac mPackets:count 0
attr interpolationmode none
attr source transmittedPreemptableFramePartSignal
attr title "mPackets, count"
scalar TestNetwork.switchA.eth[0].mac preemptableFrames:count 0
attr interpolationmode none
attr source transmittedPreemptableFrameSignal
attr title "preemptableFrames, count"
scalar TestNetwork.switchA.eth[0].mac expressFrames:count 0
attr interpolationmode none
attr source transmittedExpressFrameSignal
attr title "expressFrames, count"
scalar TestNetwork.switchA.eth[0].mac preemptions:count 0
attr interpolationmode none
attr source preemptCurrentFrameSignal
attr title "preemptions, count"
scalar TestNetwork.switchA.eth[0].mac rxPausePkUnits:count 0
attr interpolationmode none
attr title "pause units received, count"
scalar TestNetwork.switchA.eth[0].mac rxPausePkUnits:sum 0
attr interpolationmode none
attr title "pause units received, sum"
scalar TestNetwork.switchA.eth[0].mac txPausePkUnits:count 0
attr interpolationmode none
attr title "pause units sent, count"
scalar TestNetwork.switchA.eth[0].mac txPausePkUnits:sum 0
attr interpolationmode none
attr title "pause units sent, sum"
scalar TestNetwork.switchA.eth[0].mac rxPkOk:count 6
attr interpolationmode none
attr source rxPkOk
attr title "packets received OK, count"
scalar TestNetwork.switchA.eth[0].mac rxPkOk:sum(packetBytes) 9102
attr interpolationmode none
attr source rxPkOk
attr title "packets received OK, sum(packetBytes)"
scalar TestNetwork.switchA.eth[0].mac txPk:count 0
attr interpolationmode none
attr source packetSentToLower
attr title "packets transmitted, count"
scalar TestNetwork.switchA.eth[0].mac txPk:sum(packetBytes) 0
attr interpolationmode none
attr source packetSentToLower
attr title "packets transmitted, sum(packetBytes)"
scalar TestNetwork.switchA.eth[0].mac packetReceivedFromUpper:count 0
attr interpolationmode none
attr source packetReceivedFromUpper
attr title "packet bytes from higher layer, count"
scalar TestNetwork.switchA.eth[0].mac packetReceivedFromUpper:sum(packetBytes) 0
attr interpolationmode none
attr source packetReceivedFromUpper
attr title "packet bytes from higher layer, sum(packetBytes)"
scalar TestNetwork.switchA.eth[0].mac passedUpPk:count 6
attr interpolationmode none
attr source packetSentToUpper
attr title "packets passed to higher layer, count"
scalar TestNetwork.switchA.eth[0].mac passedUpPk:sum(packetBytes) 9102
attr interpolationmode none
attr source packetSentToUpper
attr title "packets passed to higher layer, sum(packetBytes)"
scalar TestNetwork.switchA.eth[0].mac packetDropIncorrectlyReceived:count 0
attr interpolationmode none
attr source packetDropReasonIsIncorrectlyReceived(packetDropped)
attr title "packet drop: incorrectly received, count"
scalar TestNetwork.switchA.eth[0].mac packetDropIncorrectlyReceived:sum(packetBytes) 0
attr interpolationmode none
attr source packetDropReasonIsIncorrectlyReceived(packetDropped)
attr title "packet drop: incorrectly received, sum(packetBytes)"
scalar TestNetwork.switchA.eth[0].mac packetDropInterfaceDown:count 0
attr interpolationmode none
attr source packetDropReasonIsInterfaceDown(packetDropped)
attr title "packet drop: interface down, count"
scalar TestNetwork.switchA.eth[0].mac packetDropInterfaceDown:sum(packetBytes) 0
attr interpolationmode none
attr source packetDropReasonIsInterfaceDown(packetDropped)
attr title "packet drop: interface down, sum(packetBytes)"
scalar TestNetwork.switchA.eth[0].mac packetDropNotAddressedToUs:count 0
attr interpolationmode none
attr source packetDropReasonIsNotAddressedToUs(packetDropped)
attr title "packet drop: not addressed to us, count"
scalar TestNetwork.switchA.eth[0].mac packetDropNotAddressedToUs:sum(packetBytes) 0
attr interpolationmode none
attr source packetDropReasonIsNotAddressedToUs(packetDropped)
attr title "packet drop: not addressed to us, sum(packetBytes)"
scalar TestNetwork.switchA.eth[0].queuing.queues[0] dropPk:count 0
attr interpolationmode none
attr source dropPkByQueue
attr title "dropped packets, count"
scalar TestNetwork.switchA.eth[0].queuing.queues[0] dropPk:sum(packetBytes) 0
attr interpolationmode none
attr source dropPkByQueue
attr title "dropped packets, sum(packetBytes)"
scalar TestNetwork.switchA.eth[0].queuing.queues[0] rcvdPk:count 0
attr interpolationmode none
attr title "received packets, count"
scalar TestNetwork.switchA.eth[0].queuing.queues[0] rcvdPk:sum(packetBytes) 0
attr interpolationmode none
attr title "received packets, sum(packetBytes)"
statistic TestNetwork.switchA.eth[0].queuing.queues[0] queueingTime:histogram
field count 0
field mean -nan
field stddev -nan
field min -nan
field max -nan
field sum 0
field sqrsum 0
attr interpolationmode none
attr title "queueing time, histogram"
bin	-inf	0
bin	0	0
bin	1	0
scalar TestNetwork.switchA.eth[0].queuing.queues[0] queueLength:max 0
attr interpolationmode sample-hold
attr title "queue length, max"
scalar TestNetwork.switchA.eth[0].queuing.queues[0] queueLength:timeavg 0
attr interpolationmode sample-hold
attr title "queue length, timeavg"
scalar TestNetwork.switchA.eth[0].queuing.queues[1] dropPk:count 0
attr interpolationmode none
attr source dropPkByQueue
attr title "dropped packets, count"
scalar TestNetwork.switchA.eth[0].queuing.queues[1] dropPk:sum(packetBytes) 0
attr interpolationmode none
attr source dropPkByQueue
attr title "dropped packets, sum(packetBytes)"
scalar TestNetwork.switchA.eth[0].queuing.queues[1] rcvdPk:count 0
attr interpolationmode none
attr title "received packets, count"
scalar TestNetwork.switchA.eth[0].queuing.queues[1] rcvdPk:sum(packetBytes) 0
attr interpolationmode none
attr title "received packets, sum(packetBytes)"
statistic TestNetwork.switchA.eth[0].queuing.queues[1] queueingTime:histogram
field count 0
field mean -nan
field stddev -nan
field min -nan
field max -nan
field sum 0
field sqrsum 0
attr interpolationmode none
attr title "queueing time, histogram"
bin	-inf	0
bin	0	0
bin	1	0
scalar TestNetwork.switchA.eth[0].queuing.queues[1] queueLength:max 0
attr interpolationmode sample-hold
attr title "queue length, max"
scalar TestNetwork.switchA.eth[0].queuing.queues[1] queueLength:timeavg 0
attr interpolationmode sample-hold
attr title "queue length, timeavg"
scalar TestNetwork.switchA.eth[0].queuing.queues[2] dropPk:count 0
attr interpolationmode none
attr source dropPkByQueue
attr title "dropped packets, count"
scalar TestNetwork.switchA.eth[0].queuing.queues[2] dropPk:sum(packetBytes) 0
attr interpolationmode none
attr source dropPkByQueue
attr title "dropped packets, sum(packetBytes)"
scalar TestNetwork.switchA.eth[0].queuing.queues[2] rcvdPk:count 0
attr interpolationmode none
attr title "received packets, count"
scalar TestNetwork.switchA.eth[0].queuing.queues[2] rcvdPk:sum(packetBytes) 0
attr interpolationmode none
attr title "received packets, sum(packetBytes)"
statistic TestNetwork.switchA.eth[0].queuing.queues[2] queueingTime:histogram
field count 0
field mean -nan
field stddev -nan
field min -nan
field max -nan
field sum 0
field sqrsum 0
attr interpolationmode none
attr title "queueing time, histogram"
bin	-inf	0
bin	0	0
bin	1	0
scalar TestNetwork.switchA.eth[0].queuing.queues[2] queueLength:max 0
attr interpolationmode sample-hold
attr title "queue length, max"
scalar TestNetwork.switchA.eth[0].queuing.queues[2] queueLength:timeavg 0
attr interpolationmode sample-hold
attr title "queue length, timeavg"
scalar TestNetwork.switchA.eth[0].queuing.queues[3] dropPk:count 0
attr interpolationmode none
attr source dropPkByQueue
attr title "dropped packets, count"
scalar TestNetwork.switchA.eth[0].queuing.queues[3] dropPk:sum(packetBytes) 0
attr interpolationmode none
attr source dropPkByQueue
attr title "dropped packets, sum(packetBytes)"
scalar TestNetwork.switchA.eth[0].queuing.queues[3] rcvdPk:count 0
attr interpolationmode none
attr title "received packets, count"
scalar TestNetwork.switchA.eth[0].queuing.queues[3] rcvdPk:sum(packetBytes) 0
attr interpolationmode none
attr title "received packets, sum(packetBytes)"
statistic TestNetwork.switchA.eth[0].queuing.queues[3] queueingTime:histogram
field count 0
field mean -nan
field stddev -nan
field min -nan
field max -nan
field sum 0
field sqrsum 0
attr interpolationmode none
attr title "queueing time, histogram"
bin	-inf	0
bin	0	0
bin	1	0
scalar TestNetwork.switchA.eth[0].queuing.queues[3] queueLength:max 0
attr interpolationmode sample-hold
attr title "queue length, max"
scalar TestNetwork.switchA.eth[0].queuing.queues[3] queueLength:timeavg 0
attr interpolationmode sample-hold
attr title "queue length, timeavg"
scalar TestNetwork.switchA.eth[0].queuing.queues[4] dropPk:count 0
attr interpolationmode none
attr source dropPkByQueue
attr title "dropped packets, count"
scalar TestNetwork.switchA.eth[0].queuing.queues[4] dropPk:sum(packetBytes) 0
attr interpolationmode none
attr source dropPkByQueue
attr title "dropped packets, sum(packetBytes)"
scalar TestNetwork.switchA.eth[0].queuing.queues[4] rcvdPk:count 0
attr interpolationmode none
attr title "received packets, count"
scalar TestNetwork.switchA.eth[0].queuing.queues[4] rcvdPk:sum(packetBytes) 0
attr interpolationmode none
attr title "received packets, sum(packetBytes)"
statistic TestNetwork.switchA.eth[0].queuing.queues[4] queueingTime:histogram
field count 0
field mean -nan
field stddev -nan
field min -nan
field max -nan
field sum 0
field sqrsum 0
attr interpolationmode none
attr title "queueing time, histogram"
bin	-inf	0
bin	0	0
bin	1	0
scalar TestNetwork.switchA.eth[0].queuing.queues[4] queueLength:max 0
attr interpolationmode sample-hold
attr title "queue length, max"
scalar TestNetwork.switchA.eth[0].queuing.queues[4] queueLength:timeavg 0
attr interpolationmode sample-hold
attr title "queue length, timeavg"
scalar TestNetwork.switchA.eth[0].queuing.queues[5] dropPk:count 0
attr interpolationmode none
attr source dropPkByQueue
attr title "dropped packets, count"
scalar TestNetwork.switchA.eth[0].queuing.queues[5] dropPk:sum(packetBytes) 0
attr interpolationmode none
attr source dropPkByQueue
attr title "dropped packets, sum(packetBytes)"
scalar TestNetwork.switchA.eth[0].queuing.queues[5] rcvdPk:count 0
attr interpolationmode none
attr title "received packets, count"
scalar TestNetwork.switchA.eth[0].queuing.queues[5] rcvdPk:sum(packetBytes) 0
attr interpolationmode none
attr title "received packets, sum(packetBytes)"
statistic TestNetwork.switchA.eth[0].queuing.queues[5] queueingTime:histogram
field count 0
field mean -nan
field stddev -nan
field min -nan
field max -nan
field sum 0
field sqrsum 0
attr interpolationmode none
attr title "queueing time, histogram"
bin	-inf	0
bin	0	0
bin	1	0
scalar TestNetwork.switchA.eth[0].queuing.queues[5] queueLength:max 0
attr interpolationmode sample-hold
attr title "queue length, max"
scalar TestNetwork.switchA.eth[0].queuing.queues[5] queueLength:timeavg 0
attr interpolationmode sample-hold
attr title "queue length, timeavg"
scalar TestNetwork.switchA.eth[0].queuing.queues[6] dropPk:count 0
attr interpolationmode none
attr source dropPkByQueue
attr title "dropped packets, count"
scalar TestNetwork.switchA.eth[0].queuing.queues[6] dropPk:sum(packetBytes) 0
attr interpolationmode none
attr source dropPkByQueue
attr title "dropped packets, sum(packetBytes)"
scalar TestNetwork.switchA.eth[0].queuing.queues[6] rcvdPk:count 0
attr interpolationmode none
attr title "received packets, count"
scalar TestNetwork.switchA.eth[0].queuing.queues[6] rcvdPk:sum(packetBytes) 0
attr interpolationmode none
attr title "received packets, sum(packetBytes)"
statistic TestNetwork.switchA.eth[0].queuing.queues[6] queueingTime:histogram
field count 0
field mean -nan
field stddev -nan
field min -nan
field max -nan
field sum 0
field sqrsum 0
attr interpolationmode none
attr title "queueing time, histogram"
bin	-inf	0
bin	0	0
bin	1	0
scalar TestNetwork.switchA.eth[0].queuing.queues[6] queueLength:max 0
attr interpolationmode sample-hold
attr title "queue length, max"
scalar TestNetwork.switchA.eth[0].queuing.queues[6] queueLength:timeavg 0
attr interpolationmode sample-hold
attr title "queue length, timeavg"
scalar TestNetwork.switchA.eth[0].queuing.queues[7] dropPk:count 0
attr interpolationmode none
attr source dropPkByQueue
attr title "dropped packets, count"
scalar TestNetwork.switchA.eth[0].queuing.queues[7] dropPk:sum(packetBytes) 0
attr interpolationmode none
attr source dropPkByQueue
attr title "dropped packets, sum(packetBytes)"
scalar TestNetwork.switchA.eth[0].queuing.queues[7] rcvdPk:count 0
attr interpolationmode none
attr title "received packets, count"
scalar TestNetwork.switchA.eth[0].queuing.queues[7] rcvdPk:sum(packetBytes) 0
attr interpolationmode none
attr title "received packets, sum(packetBytes)"
statistic TestNetwork.switchA.eth[0].queuing.queues[7] queueingTime:histogram
field count 0
field mean -nan
field stddev -nan
field min -nan
field max -nan
field sum 0
field sqrsum 0
attr interpolationmode none
attr title "queueing time, histogram"
bin	-inf	0
bin	0	0
bin	1	0
scalar TestNetwork.switchA.eth[0].queuing.queues[7] queueLength:max 0
attr interpolationmode sample-hold
attr title "queue length, max"
scalar TestNetwork.switchA.eth[0].queuing.queues[7] queueLength:timeavg 0
attr interpolationmode sample-hold
attr title "queue length, timeavg"
scalar TestNetwork.switchA.eth[0].vlanEncapE decapPk:count 6
attr interpolationmode none
attr source decapPk
attr title "packets decapsulated, count"
scalar TestNetwork.switchA.eth[0].vlanEncapE decapPk:sum(packetBytes) 9018
attr interpolationmode none
attr source decapPk
attr title "packets decapsulated, sum(packetBytes)"
scalar TestNetwork.switchA.eth[0].vlanEncapE encapPk:count 0
attr interpolationmode none
attr source encapPk
attr title "packets encapsulated, count"
scalar TestNetwork.switchA.eth[0].vlanEncapE encapPk:sum(packetBytes) 0
attr interpolationmode none
attr source encapPk
attr title "packets encapsulated, sum(packetBytes)"
scalar TestNetwork.switchA.eth[0].etherEncapE pauseSent:count 0
attr title "pause sent, count"
scalar TestNetwork.switchA.eth[0].etherEncapE pauseSent:sum 0
attr title "pause sent, sum"
scalar TestNetwork.switchA.eth[0].etherEncapE decapPk:count 0
attr interpolationmode none
attr source decapPk
attr title "packets decapsulated, count"
scalar TestNetwork.switchA.eth[0].etherEncapE decapPk:sum(packetBytes) 0
attr interpolationmode none
attr source decapPk
attr title "packets decapsulated, sum(packetBytes)"
scalar TestNetwork.switchA.eth[0].etherEncapE encapPk:count 0
attr interpolationmode none
attr source encapPk
attr title "packets encapsulated, count"
scalar TestNetwork.switchA.eth[0].etherEncapE encapPk:sum(packetBytes) 0
attr interpolationmode none
attr source encapPk
attr title "packets encapsulated, sum(packetBytes)"
scalar TestNetwork.switchA.eth[0].vlanEncapP decapPk:count 0
attr interpolationmode none
attr source decapPk
attr title "packets decapsulated, count"
scalar TestNetwork.switchA.eth[0].vlanEncapP decapPk:sum(packetBytes) 0
attr interpolationmode none
attr source decapPk
attr title "packets decapsulated, sum(packetBytes)"
scalar TestNetwork.switchA.eth[0].vlanEncapP encapPk:count 0
attr interpolationmode none
attr source encapPk
attr title "packets encapsulated, count"
scalar TestNetwork.switchA.eth[0].vlanEncapP encapPk:sum(packetBytes) 0
attr interpolationmode none
attr source encapPk
attr title "packets encapsulated, sum(packetBytes)"
scalar TestNetwork.switchA.eth[0].etherEncapP pauseSent:count 0
attr title "pause sent, count"
scalar TestNetwork.switchA.eth[0].etherEncapP pauseSent:sum 0
attr title "pause sent, sum"
scalar TestNetwork.switchA.eth[0].etherEncapP decapPk:count 0
attr interpolationmode none
attr source decapPk
attr title "packets decapsulated, count"
scalar TestNetwork.switchA.eth[0].etherEncapP decapPk:sum(packetBytes) 0
attr interpolationmode none
attr source decapPk
attr title "packets decapsulated, sum(packetBytes)"
scalar TestNetwork.switchA.eth[0].etherEncapP encapPk:count 0
attr interpolationmode none
attr source encapPk
attr title "packets encapsulated, count"
scalar TestNetwork.switchA.eth[0].etherEncapP encapPk:sum(packetBytes) 0
attr interpolationmode none
attr source encapPk
attr title "packets encapsulated, sum(packetBytes)"
scalar TestNetwork.switchA.eth[1].mac "simulated time" 0.000850704427
scalar TestNetwork.switchA.eth[1].mac full-duplex 1
scalar TestNetwork.switchA.eth[1].mac "frames/sec sent" 0
scalar TestNetwork.switchA.eth[1].mac "frames/sec rcvd" 2350.9928202125
scalar TestNetwork.switchA.eth[1].mac "bits/sec sent" 0
scalar TestNetwork.switchA.eth[1].mac "bits/sec rcvd" 7052978.4606375
scalar TestNetwork.switchA.eth[1].mac "rx channel idle (%)" 100
scalar TestNetwork.switchA.eth[1].mac "rx channel utilization (%)" 0
statistic TestNetwork.switchA.eth[1].mac pMacDelay:histogram
field count 0
field mean -nan
field stddev -nan
field min -nan
field max -nan
field sum 0
field sqrsum 0
attr interpolationmode none
attr title "pMacDelay, histogram"
bin	-inf	0
bin	0	0
bin	1	0
statistic TestNetwork.switchA.eth[1].mac eMacDelay:histogram
field count 0
field mean -nan
field stddev -nan
field min -nan
field max -nan
field sum 0
field sqrsum 0
attr interpolationmode none
attr title "eMacDelay, histogram"
bin	-inf	0
bin	0	0
bin	1	0
scalar TestNetwork.switchA.eth[1].mac expressFramesEnqueued:count 0
attr interpolationmode none
attr source expressFrameEnqueuedWhileSendingPreemptableSignal
attr title "express frames enqueued, count"
scalar TestNetwork.switchA.eth[1].mac mPacketsFull:count 0
attr interpolationmode none
attr source transmittedPreemptableFullSignal
attr title "mpackets full, count"
scalar TestNetwork.switchA.eth[1].mac mPacketsFinal:count 0
attr interpolationmode none
attr source transmittedPreemptableFinalSignal
attr title "mPackets final, count"
scalar TestNetwork.switchA.eth[1].mac mPacketsNonFinal:count 0
attr interpolationmode none
attr source transmittedPreemptableNonFinalSignal
attr title "mPackets non-final, count"
scalar TestNetwork.switchA.eth[1].mac mPackets:count 0
attr interpolationmode none
attr source transmittedPreemptableFramePartSignal
attr title "mPackets, count"
scalar TestNetwork.switchA.eth[1].mac preemptableFrames:count 0
attr interpolationmode none
attr source transmittedPreemptableFrameSignal
attr title "preemptableFrames, count"
scalar TestNetwork.switchA.eth[1].mac expressFrames:count 0
attr interpolationmode none
attr source transmittedExpressFrameSignal
attr title "expressFrames, count"
scalar TestNetwork.switchA.eth[1].mac preemptions:count 0
attr interpolationmode none
attr source preemptCurrentFrameSignal
attr title "preemptions, count"
scalar TestNetwork.switchA.eth[1].mac rxPausePkUnits:count 0
attr interpolationmode none
attr title "pause units received, count"
scalar TestNetwork.switchA.eth[1].mac rxPausePkUnits:sum 0
attr interpolationmode none
attr title "pause units received, sum"
scalar TestNetwork.switchA.eth[1].mac txPausePkUnits:count 0
attr interpolationmode none
attr title "pause units sent, count"
scalar TestNetwork.switchA.eth[1].mac txPausePkUnits:sum 0
attr interpolationmode none
attr title "pause units sent, sum"
scalar TestNetwork.switchA.eth[1].mac rxPkOk:count 2
attr interpolationmode none
attr source rxPkOk
attr title "packets received OK, count"
scalar TestNetwork.switchA.eth[1].mac rxPkOk:sum(packetBytes) 750
attr interpolationmode none
attr source rxPkOk
attr title "packets received OK, sum(packetBytes)"
scalar TestNetwork.switchA.eth[1].mac txPk:count 0
attr interpolationmode none
attr source packetSentToLower
attr title "packets transmitted, count"
scalar TestNetwork.switchA.eth[1].mac txPk:sum(packetBytes) 0
attr interpolationmode none
attr source packetSentToLower
attr title "packets transmitted, sum(packetBytes)"
scalar TestNetwork.switchA.eth[1].mac packetReceivedFromUpper:count 0
attr interpolationmode none
attr source packetReceivedFromUpper
attr title "packet bytes from higher layer, count"
scalar TestNetwork.switchA.eth[1].mac packetReceivedFromUpper:sum(packetBytes) 0
attr interpolationmode none
attr source packetReceivedFromUpper
attr title "packet bytes from higher layer, sum(packetBytes)"
scalar TestNetwork.switchA.eth[1].mac passedUpPk:count 2
attr interpolationmode none
attr source packetSentToUpper
attr title "packets passed to higher layer, count"
scalar TestNetwork.switchA.eth[1].mac passedUpPk:sum(packetBytes) 750
attr interpolationmode none
attr source packetSentToUpper
attr title "packets passed to higher layer, sum(packetBytes)"
scalar TestNetwork.switchA.eth[1].mac packetDropIncorrectlyReceived:count 0
attr interpolationmode none
attr source packetDropReasonIsIncorrectlyReceived(packetDropped)
attr title "packet drop: incorrectly received, count"
scalar TestNetwork.switchA.eth[1].mac packetDropIncorrectlyReceived:sum(packetBytes) 0
attr interpolationmode none
attr source packetDropReasonIsIncorrectlyReceived(packetDropped)
attr title "packet drop: incorrectly received, sum(packetBytes)"
scalar TestNetwork.switchA.eth[1].mac packetDropInterfaceDown:count 0
attr interpolationmode none
attr source packetDropReasonIsInterfaceDown(packetDropped)
attr title "packet drop: interface down, count"
scalar TestNetwork.switchA.eth[1].mac packetDropInterfaceDown:sum(packetBytes) 0
attr interpolationmode none
attr source packetDropReasonIsInterfaceDown(packetDropped)
attr title "packet drop: interface down, sum(packetBytes)"
scalar TestNetwork.switchA.eth[1].mac packetDropNotAddressedToUs:count 0
attr interpolationmode none
attr source packetDropReasonIsNotAddressedToUs(packetDropped)
attr title "packet drop: not addressed to us, count"
scalar TestNetwork.switchA.eth[1].mac packetDropNotAddressedToUs:sum(packetBytes) 0
attr interpolationmode none
attr source packetDropReasonIsNotAddressedToUs(packetDropped)
attr title "packet drop: not addressed to us, sum(packetBytes)"
scalar TestNetwork.switchA.eth[1].queuing.queues[0] dropPk:count 0
attr interpolationmode none
attr source dropPkByQueue
attr title "dropped packets, count"
scalar TestNetwork.switchA.eth[1].queuing.queues[0] dropPk:sum(packetBytes) 0
attr interpolationmode none
attr source dropPkByQueue
attr title "dropped packets, sum(packetBytes)"
scalar TestNetwork.switchA.eth[1].queuing.queues[0] rcvdPk:count 0
attr interpolationmode none
attr title "received packets, count"
scalar TestNetwork.switchA.eth[1].queuing.queues[0] rcvdPk:sum(packetBytes) 0
attr interpolationmode none
attr title "received packets, sum(packetBytes)"
statistic TestNetwork.switchA.eth[1].queuing.queues[0] queueingTime:histogram
field count 0
field mean -nan
field stddev -nan
field min -nan
field max -nan
field sum 0
field sqrsum 0
attr interpolationmode none
attr title "queueing time, histogram"
bin	-inf	0
bin	0	0
bin	1	0
scalar TestNetwork.switchA.eth[1].queuing.queues[0] queueLength:max 0
attr interpolationmode sample-hold
attr title "queue length, max"
scalar TestNetwork.switchA.eth[1].queuing.queues[0] queueLength:timeavg 0
attr interpolationmode sample-hold
attr title "queue length, timeavg"
scalar TestNetwork.switchA.eth[1].queuing.queues[1] dropPk:count 0
attr interpolationmode none
attr source dropPkByQueue
attr title "dropped packets, count"
scalar TestNetwork.switchA.eth[1].queuing.queues[1] dropPk:sum(packetBytes) 0
attr interpolationmode none
attr source dropPkByQueue
attr title "dropped packets, sum(packetBytes)"
scalar TestNetwork.switchA.eth[1].queuing.queues[1] rcvdPk:count 0
attr interpolationmode none
attr title "received packets, count"
scalar TestNetwork.switchA.eth[1].queuing.queues[1] rcvdPk:sum(packetBytes) 0
attr interpolationmode none
attr title "received packets, sum(packetBytes)"
statistic TestNetwork.switchA.eth[1].queuing.queues[1] queueingTime:histogram
field count 0
field mean -nan
field stddev -nan
field min -nan
field max -nan
field sum 0
field sqrsum 0
attr interpolationmode none
attr title "queueing time, histogram"
bin	-inf	0
bin	0	0
bin	1	0
scalar TestNetwork.switchA.eth[1].queuing.queues[1] queueLength:max 0
attr interpolationmode sample-hold
attr title "queue length, max"
scalar TestNetwork.switchA.eth[1].queuing.queues[1] queueLength:timeavg 0
attr interpolationmode sample-hold
attr title "queue length, timeavg"
scalar TestNetwork.switchA.eth[1].queuing.queues[2] dropPk:count 0
attr interpolationmode none
attr source dropPkByQueue
attr title "dropped packets, count"
scalar TestNetwork.switchA.eth[1].queuing.queues[2] dropPk:sum(packetBytes) 0
attr interpolationmode none
attr source dropPkByQueue
attr title "dropped packets, sum(packetBytes)"
scalar TestNetwork.switchA.eth[1].queuing.queues[2] rcvdPk:count 0
attr interpolationmode none
attr title "received packets, count"
scalar TestNetwork.switchA.eth[1].queuing.queues[2] rcvdPk:sum(packetBytes) 0
attr interpolationmode none
attr title "received packets, sum(packetBytes)"
statistic TestNetwork.switchA.eth[1].queuing.queues[2] queueingTime:histogram
field count 0
field mean -nan
field stddev -nan
field min -nan
field max -nan
field sum 0
field sqrsum 0
attr interpolationmode none
attr title "queueing time, histogram"
bin	-inf	0
bin	0	0
bin	1	0
scalar TestNetwork.switchA.eth[1].queuing.queues[2] queueLength:max 0
attr interpolationmode sample-hold
attr title "queue length, max"
scalar TestNetwork.switchA.eth[1].queuing.queues[2] queueLength:timeavg 0
attr interpolationmode sample-hold
attr title "queue length, timeavg"
scalar TestNetwork.switchA.eth[1].queuing.queues[3] dropPk:count 0
attr interpolationmode none
attr source dropPkByQueue
attr title "dropped packets, count"
scalar TestNetwork.switchA.eth[1].queuing.queues[3] dropPk:sum(packetBytes) 0
attr interpolationmode none
attr source dropPkByQueue
attr title "dropped packets, sum(packetBytes)"
scalar TestNetwork.switchA.eth[1].queuing.queues[3] rcvdPk:count 0
attr interpolationmode none
attr title "received packets, count"
scalar TestNetwork.switchA.eth[1].queuing.queues[3] rcvdPk:sum(packetBytes) 0
attr interpolationmode none
attr title "received packets, sum(packetBytes)"
statistic TestNetwork.switchA.eth[1].queuing.queues[3] queueingTime:histogram
field count 0
field mean -nan
field stddev -nan
field min -nan
field max -nan
field sum 0
field sqrsum 0
attr interpolationmode none
attr title "queueing time, histogram"
bin	-inf	0
bin	0	0
bin	1	0
scalar TestNetwork.switchA.eth[1].queuing.queues[3] queueLength:max 0
attr interpolationmode sample-hold
attr title "queue length, max"
scalar TestNetwork.switchA.eth[1].queuing.queues[3] queueLength:timeavg 0
attr interpolationmode sample-hold
[...]
attr title "mPackets non-final, count"
scalar TestNetwork.switchA.eth[3].mac mPackets:count 0
attr interpolationmode none
attr source transmittedPreemptableFramePartSignal
attr title "mPackets, count"
scalar TestNetwork.switchA.eth[3].mac preemptableFrames:count 0
attr interpolationmode none
attr source transmittedPreemptableFrameSignal
attr title "preemptableFrames, count"
scalar TestNetwork.switchA.eth[3].mac expressFrames:count 0
attr interpolationmode none
attr source transmittedExpressFrameSignal
attr title "expressFrames, count"
scalar TestNetwork.switchA.eth[3].mac preemptions:count 0
attr interpolationmode none
attr source preemptCurrentFrameSignal
attr title "preemptions, count"
scalar TestNetwork.switchA.eth[3].mac rxPausePkUnits:count 0
attr interpolationmode none
attr title "pause units received, count"
scalar TestNetwork.switchA.eth[3].mac rxPausePkUnits:sum 0
attr interpolationmode none
attr title "pause units received, sum"
scalar TestNetwork.switchA.eth[3].mac txPausePkUnits:count 0
attr interpolationmode none
attr title "pause units sent, count"
scalar TestNetwork.switchA.eth[3].mac txPausePkUnits:sum 0
attr interpolationmode none
attr title "pause units sent, sum"
scalar TestNetwork.switchA.eth[3].mac rxPkOk:count 0
attr interpolationmode none
attr source rxPkOk
attr title "packets received OK, count"
scalar TestNetwork.switchA.eth[3].mac rxPkOk:sum(packetBytes) 0
attr interpolationmode none
attr source rxPkOk
attr title "packets received OK, sum(packetBytes)"
scalar TestNetwork.switchA.eth[3].mac txPk:count 0
attr interpolationmode none
attr source packetSentToLower
attr title "packets transmitted, count"
scalar TestNetwork.switchA.eth[3].mac txPk:sum(packetBytes) 0
attr interpolationmode none
attr source packetSentToLower
attr title "packets transmitted, sum(packetBytes)"
scalar TestNetwork.switchA.eth[3].mac packetReceivedFromUpper:count 0
attr interpolationmode none
attr source packetReceivedFromUpper
attr title "packet bytes from higher layer, count"
scalar TestNetwork.switchA.eth[3].mac packetReceivedFromUpper:sum(packetBytes) 0
attr interpolationmode none
attr source packetReceivedFromUpper
attr title "packet bytes from higher layer, sum(packetBytes)"
scalar TestNetwork.switchA.eth[3].mac passedUpPk:count 0
attr interpolationmode none
attr source packetSentToUpper
attr title "packets passed to higher layer, count"
scalar TestNetwork.switchA.eth[3].mac passedUpPk:sum(packetBytes) 0
attr interpolationmode none
attr source packetSentToUpper
attr title "packets passed to higher layer, sum(packetBytes)"
scalar TestNetwork.switchA.eth[3].mac packetDropIncorrectlyReceived:count 0
attr interpolationmode none
attr source packetDropReasonIsIncorrectlyReceived(packetDropped)
attr title "packet drop: incorrectly received, count"
scalar TestNetwork.switchA.eth[3].mac packetDropIncorrectlyReceived:sum(packetBytes) 0
attr interpolationmode none
attr source packetDropReasonIsIncorrectlyReceived(packetDropped)
attr title "packet drop: incorrectly received, sum(packetBytes)"
scalar TestNetwork.switchA.eth[3].mac packetDropInterfaceDown:count 0
attr interpolationmode none
attr source packetDropReasonIsInterfaceDown(packetDropped)
attr title "packet drop: interface down, count"
scalar TestNetwork.switchA.eth[3].mac packetDropInterfaceDown:sum(packetBytes) 0
attr interpolationmode none
attr source packetDropReasonIsInterfaceDown(packetDropped)
attr title "packet drop: interface down, sum(packetBytes)"
scalar TestNetwork.switchA.eth[3].mac packetDropNotAddressedToUs:count 0
attr interpolationmode none
attr source packetDropReasonIsNotAddressedToUs(packetDropped)
attr title "packet drop: not addressed to us, count"
scalar TestNetwork.switchA.eth[3].mac packetDropNotAddressedToUs:sum(packetBytes) 0
attr interpolationmode none
attr source packetDropReasonIsNotAddressedToUs(packetDropped)
attr title "packet drop: not addressed to us, sum(packetBytes)"
scalar TestNetwork.switchA.eth[3].queuing.queues[0] dropPk:count 0
attr interpolationmode none
attr source dropPkByQueue
attr title "dropped packets, count"
scalar TestNetwork.switchA.eth[3].queuing.queues[0] dropPk:sum(packetBytes) 0
attr interpolationmode none
attr source dropPkByQueue
attr title "dropped packets, sum(packetBytes)"
scalar TestNetwork.switchA.eth[3].queuing.queues[0] rcvdPk:count 0
attr interpolationmode none
attr title "received packets, count"
scalar TestNetwork.switchA.eth[3].queuing.queues[0] rcvdPk:sum(packetBytes) 0
attr interpolationmode none
attr title "received packets, sum(packetBytes)"
statistic TestNetwork.switchA.eth[3].queuing.queues[0] queueingTime:histogram
field count 0
field mean -nan
field stddev -nan
field min -nan
field max -nan
field sum 0
field sqrsum 0
attr interpolationmode none
attr title "queueing time, histogram"
bin	-inf	0
bin	0	0
bin	1	0
scalar TestNetwork.switchA.eth[3].queuing.queues[0] queueLength:max 0
attr interpolationmode sample-hold
attr title "queue length, max"
scalar TestNetwork.switchA.eth[3].queuing.queues[0] queueLength:timeavg 0
attr interpolationmode sample-hold
attr title "queue length, timeavg"
scalar TestNetwork.switchA.eth[3].queuing.queues[1] dropPk:count 0
attr interpolationmode none
attr source dropPkByQueue
attr title "dropped packets, count"
scalar TestNetwork.switchA.eth[3].queuing.queues[1] dropPk:sum(packetBytes) 0
attr interpolationmode none
attr source dropPkByQueue
attr title "dropped packets, sum(packetBytes)"
scalar TestNetwork.switchA.eth[3].queuing.queues[1] rcvdPk:count 0
attr interpolationmode none
attr title "received packets, count"
scalar TestNetwork.switchA.eth[3].queuing.queues[1] rcvdPk:sum(packetBytes) 0
attr interpolationmode none
attr title "received packets, sum(packetBytes)"
statistic TestNetwork.switchA.eth[3].queuing.queues[1] queueingTime:histogram
field count 0
field mean -nan
field stddev -nan
field min -nan
field max -nan
field sum 0
field sqrsum 0
attr interpolationmode none
attr title "queueing time, histogram"
bin	-inf	0
bin	0	0
bin	1	0
scalar TestNetwork.switchA.eth[3].queuing.queues[1] queueLength:max 0
attr interpolationmode sample-hold
attr title "queue length, max"
scalar TestNetwork.switchA.eth[3].queuing.queues[1] queueLength:timeavg 0
attr interpolationmode sample-hold
attr title "queue length, timeavg"
scalar TestNetwork.switchA.eth[3].queuing.queues[2] dropPk:count 0
attr interpolationmode none
attr source dropPkByQueue
attr title "dropped packets, count"
scalar TestNetwork.switchA.eth[3].queuing.queues[2] dropPk:sum(packetBytes) 0
attr interpolationmode none
attr source dropPkByQueue
attr title "dropped packets, sum(packetBytes)"
scalar TestNetwork.switchA.eth[3].queuing.queues[2] rcvdPk:count 0
attr interpolationmode none
attr title "received packets, count"
scalar TestNetwork.switchA.eth[3].queuing.queues[2] rcvdPk:sum(packetBytes) 0
attr interpolationmode none
attr title "received packets, sum(packetBytes)"
statistic TestNetwork.switchA.eth[3].queuing.queues[2] queueingTime:histogram
field count 0
field mean -nan
field stddev -nan
field min -nan
field max -nan
field sum 0
field sqrsum 0
attr interpolationmode none
attr title "queueing time, histogram"
bin	-inf	0
bin	0	0
bin	1	0
scalar TestNetwork.switchA.eth[3].queuing.queues[2] queueLength:max 0
attr interpolationmode sample-hold
attr title "queue length, max"
scalar TestNetwork.switchA.eth[3].queuing.queues[2] queueLength:timeavg 0
attr interpolationmode sample-hold
attr title "queue length, timeavg"
scalar TestNetwork.switchA.eth[3].queuing.queues[3] dropPk:count 0
attr interpolationmode none
attr source dropPkByQueue
attr title "dropped packets, count"
scalar TestNetwork.switchA.eth[3].queuing.queues[3] dropPk:sum(packetBytes) 0
attr interpolationmode none
attr source dropPkByQueue
attr title "dropped packets, sum(packetBytes)"
scalar TestNetwork.switchA.eth[3].queuing.queues[3] rcvdPk:count 0
attr interpolationmode none
attr title "received packets, count"
scalar TestNetwork.switchA.eth[3].queuing.queues[3] rcvdPk:sum(packetBytes) 0
attr interpolationmode none
attr title "received packets, sum(packetBytes)"
statistic TestNetwork.switchA.eth[3].queuing.queues[3] queueingTime:histogram
field count 0
field mean -nan
field stddev -nan
field min -nan
field max -nan
field sum 0
field sqrsum 0
attr interpolationmode none
attr title "queueing time, histogram"
bin	-inf	0
bin	0	0
bin	1	0
scalar TestNetwork.switchA.eth[3].queuing.queues[3] queueLength:max 0
attr interpolationmode sample-hold
attr title "queue length, max"
scalar TestNetwork.switchA.eth[3].queuing.queues[3] queueLength:timeavg 0
attr interpolationmode sample-hold
attr title "queue length, timeavg"
scalar TestNetwork.switchA.eth[3].queuing.queues[4] dropPk:count 0
attr interpolationmode none
attr source dropPkByQueue
attr title "dropped packets, count"
scalar TestNetwork.switchA.eth[3].queuing.queues[4] dropPk:sum(packetBytes) 0
attr interpolationmode none
attr source dropPkByQueue
attr title "dropped packets, sum(packetBytes)"
scalar TestNetwork.switchA.eth[3].queuing.queues[4] rcvdPk:count 0
attr interpolationmode none
attr title "received packets, count"
scalar TestNetwork.switchA.eth[3].queuing.queues[4] rcvdPk:sum(packetBytes) 0
attr interpolationmode none
attr title "received packets, sum(packetBytes)"
statistic TestNetwork.switchA.eth[3].queuing.queues[4] queueingTime:histogram
field count 0
field mean -nan
field stddev -nan
field min -nan
field max -nan
field sum 0
field sqrsum 0
attr interpolationmode none
attr title "queueing time, histogram"
bin	-inf	0
bin	0	0
bin	1	0
scalar TestNetwork.switchA.eth[3].queuing.queues[4] queueLength:max 0
attr interpolationmode sample-hold
attr title "queue length, max"
scalar TestNetwork.switchA.eth[3].queuing.queues[4] queueLength:timeavg 0
attr interpolationmode sample-hold
attr title "queue length, timeavg"
scalar TestNetwork.switchA.eth[3].queuing.queues[5] dropPk:count 0
attr interpolationmode none
attr source dropPkByQueue
attr title "dropped packets, count"
scalar TestNetwork.switchA.eth[3].queuing.queues[5] dropPk:sum(packetBytes) 0
attr interpolationmode none
attr source dropPkByQueue
attr title "dropped packets, sum(packetBytes)"
scalar TestNetwork.switchA.eth[3].queuing.queues[5] rcvdPk:count 0
attr interpolationmode none
attr title "received packets, count"
scalar TestNetwork.switchA.eth[3].queuing.queues[5] rcvdPk:sum(packetBytes) 0
attr interpolationmode none
attr title "received packets, sum(packetBytes)"
statistic TestNetwork.switchA.eth[3].queuing.queues[5] queueingTime:histogram
field count 0
field mean -nan
field stddev -nan
field min -nan
field max -nan
field sum 0
field sqrsum 0
attr interpolationmode none
attr title "queueing time, histogram"
bin	-inf	0
bin	0	0
bin	1	0
scalar TestNetwork.switchA.eth[3].queuing.queues[5] queueLength:max 0
attr interpolationmode sample-hold
attr title "queue length, max"
scalar TestNetwork.switchA.eth[3].queuing.queues[5] queueLength:timeavg 0
attr interpolationmode sample-hold
attr title "queue length, timeavg"
scalar TestNetwork.switchA.eth[3].queuing.queues[6] dropPk:count 0
attr interpolationmode none
attr source dropPkByQueue
attr title "dropped packets, count"
scalar TestNetwork.switchA.eth[3].queuing.queues[6] dropPk:sum(packetBytes) 0
attr interpolationmode none
attr source dropPkByQueue
attr title "dropped packets, sum(packetBytes)"
scalar TestNetwork.switchA.eth[3].queuing.queues[6] rcvdPk:count 0
attr interpolationmode none
attr title "received packets, count"
scalar TestNetwork.switchA.eth[3].queuing.queues[6] rcvdPk:sum(packetBytes) 0
attr interpolationmode none
attr title "received packets, sum(packetBytes)"
statistic TestNetwork.switchA.eth[3].queuing.queues[6] queueingTime:histogram
field count 0
field mean -nan
field stddev -nan
field min -nan
field max -nan
field sum 0
field sqrsum 0
attr interpolationmode none
attr title "queueing time, histogram"
bin	-inf	0
bin	0	0
bin	1	0
scalar TestNetwork.switchA.eth[3].queuing.queues[6] queueLength:max 0
attr interpolationmode sample-hold
attr title "queue length, max"
scalar TestNetwork.switchA.eth[3].queuing.queues[6] queueLength:timeavg 0
attr interpolationmode sample-hold
attr title "queue length, timeavg"
scalar TestNetwork.switchA.eth[3].queuing.queues[7] dropPk:count 0
attr interpolationmode none
attr source dropPkByQueue
attr title "dropped packets, count"
scalar TestNetwork.switchA.eth[3].queuing.queues[7] dropPk:sum(packetBytes) 0
attr interpolationmode none
attr source dropPkByQueue
attr title "dropped packets, sum(packetBytes)"
scalar TestNetwork.switchA.eth[3].queuing.queues[7] rcvdPk:count 0
attr interpolationmode none
attr title "received packets, count"
scalar TestNetwork.switchA.eth[3].queuing.queues[7] rcvdPk:sum(packetBytes) 0
attr interpolationmode none
attr title "received packets, sum(packetBytes)"
statistic TestNetwork.switchA.eth[3].queuing.queues[7] queueingTime:histogram
field count 0
field mean -nan
field stddev -nan
field min -nan
field max -nan
field sum 0
field sqrsum 0
attr interpolationmode none
attr title "queueing time, histogram"
bin	-inf	0
bin	0	0
bin	1	0
scalar TestNetwork.switchA.eth[3].queuing.queues[7] queueLength:max 0
attr interpolationmode sample-hold
attr title "queue length, max"
scalar TestNetwork.switchA.eth[3].queuing.queues[7] queueLength:timeavg 0
attr interpolationmode sample-hold
attr title "queue length, timeavg"
scalar TestNetwork.switchA.eth[3].vlanEncapE decapPk:count 0
attr interpolationmode none
attr source decapPk
attr title "packets decapsulated, count"
scalar TestNetwork.switchA.eth[3].vlanEncapE decapPk:sum(packetBytes) 0
attr interpolationmode none
attr source decapPk
attr title "packets decapsulated, sum(packetBytes)"
scalar TestNetwork.switchA.eth[3].vlanEncapE encapPk:count 0
attr interpolationmode none
attr source encapPk
attr title "packets encapsulated, count"
scalar TestNetwork.switchA.eth[3].vlanEncapE encapPk:sum(packetBytes) 0
attr interpolationmode none
attr source encapPk
attr title "packets encapsulated, sum(packetBytes)"
scalar TestNetwork.switchA.eth[3].etherEncapE pauseSent:count 0
attr title "pause sent, count"
scalar TestNetwork.switchA.eth[3].etherEncapE pauseSent:sum 0
attr title "pause sent, sum"
scalar TestNetwork.switchA.eth[3].etherEncapE decapPk:count 0
attr interpolationmode none
attr source decapPk
attr title "packets decapsulated, count"
scalar TestNetwork.switchA.eth[3].etherEncapE decapPk:sum(packetBytes) 0
attr interpolationmode none
attr source decapPk
attr title "packets decapsulated, sum(packetBytes)"
scalar TestNetwork.switchA.eth[3].etherEncapE encapPk:count 0
attr interpolationmode none
attr source encapPk
attr title "packets encapsulated, count"
scalar TestNetwork.switchA.eth[3].etherEncapE encapPk:sum(packetBytes) 0
attr interpolationmode none
attr source encapPk
attr title "packets encapsulated, sum(packetBytes)"
scalar TestNetwork.switchA.eth[3].vlanEncapP decapPk:count 0
attr interpolationmode none
attr source decapPk
attr title "packets decapsulated, count"
scalar TestNetwork.switchA.eth[3].vlanEncapP decapPk:sum(packetBytes) 0
attr interpolationmode none
attr source decapPk
attr title "packets decapsulated, sum(packetBytes)"
scalar TestNetwork.switchA.eth[3].vlanEncapP encapPk:count 0
attr interpolationmode none
attr source encapPk
attr title "packets encapsulated, count"
scalar TestNetwork.switchA.eth[3].vlanEncapP encapPk:sum(packetBytes) 0
attr interpolationmode none
attr source encapPk
attr title "packets encapsulated, sum(packetBytes)"
scalar TestNetwork.switchA.eth[3].etherEncapP pauseSent:count 0
attr title "pause sent, count"
scalar TestNetwork.switchA.eth[3].etherEncapP pauseSent:sum 0
attr title "pause sent, sum"
scalar TestNetwork.switchA.eth[3].etherEncapP decapPk:count 0
attr interpolationmode none
attr source decapPk
attr title "packets decapsulated, count"
scalar TestNetwork.switchA.eth[3].etherEncapP decapPk:sum(packetBytes) 0
attr interpolationmode none
attr source decapPk
attr title "packets decapsulated, sum(packetBytes)"
scalar TestNetwork.switchA.eth[3].etherEncapP encapPk:count 0
attr interpolationmode none
attr source encapPk
attr title "packets encapsulated, count"
scalar TestNetwork.switchA.eth[3].etherEncapP encapPk:sum(packetBytes) 0
attr interpolationmode none
attr source encapPk
attr title "packets encapsulated, sum(packetBytes)"
statistic TestNetwork.switchA.processingDelay[0] delay:stats
field count 6
field mean 5e-06
field stddev 0
field min 5e-06
field max 5e-06
field sum 3e-05
field sqrsum 1.5e-10
attr interpolationmode none
attr source delay
attr title "packet delay, stats"
scalar TestNetwork.switchA.processingDelay[0] packetReceived:count 6
attr interpolationmode none
attr source packetReceived
attr title "packets received, count"
scalar TestNetwork.switchA.processingDelay[0] packetReceived:sum(packetBytes) 8976
attr interpolationmode none
attr source packetReceived
attr title "packets received, sum(packetBytes)"
scalar TestNetwork.switchA.processingDelay[0] packetSent:count 6
attr interpolationmode none
attr source packetSent
attr title "packets sent, count"
scalar TestNetwork.switchA.processingDelay[0] packetSent:sum(packetBytes) 8976
attr interpolationmode none
attr source packetSent
attr title "packets sent, sum(packetBytes)"
statistic TestNetwork.switchA.processingDelay[1] delay:stats
field count 2
field mean 5e-06
field stddev 0
field min 5e-06
field max 5e-06
field sum 1e-05
field sqrsum 5e-11
attr interpolationmode none
attr source delay
attr title "packet delay, stats"
scalar TestNetwork.switchA.processingDelay[1] packetReceived:count 2
attr interpolationmode none
attr source packetReceived
attr title "packets received, count"
scalar TestNetwork.switchA.processingDelay[1] packetReceived:sum(packetBytes) 708
attr interpolationmode none
attr source packetReceived
attr title "packets received, sum(packetBytes)"
scalar TestNetwork.switchA.processingDelay[1] packetSent:count 2
attr interpolationmode none
attr source packetSent
attr title "packets sent, count"
scalar TestNetwork.switchA.processingDelay[1] packetSent:sum(packetBytes) 708
attr interpolationmode none
attr source packetSent
attr title "packets sent, sum(packetBytes)"
statistic TestNetwork.switchA.processingDelay[2] delay:stats
field count 0
field mean -nan
field stddev -nan
field min -nan
field max -nan
field sum 0
field sqrsum 0
attr interpolationmode none
attr source delay
attr title "packet delay, stats"
scalar TestNetwork.switchA.processingDelay[2] packetReceived:count 0
attr interpolationmode none
attr source packetReceived
attr title "packets received, count"
scalar TestNetwork.switchA.processingDelay[2] packetReceived:sum(packetBytes) 0
attr interpolationmode none
attr source packetReceived
attr title "packets received, sum(packetBytes)"
scalar TestNetwork.switchA.processingDelay[2] packetSent:count 0
attr interpolationmode none
attr source packetSent
attr title "packets sent, count"
scalar TestNetwork.switchA.processingDelay[2] packetSent:sum(packetBytes) 0
attr interpolationmode none
attr source packetSent
attr title "packets sent, sum(packetBytes)"
statistic TestNetwork.switchA.processingDelay[3] delay:stats
field count 0
field mean -nan
field stddev -nan
field min -nan
field max -nan
field sum 0
field sqrsum 0
attr interpolationmode none
attr source delay
attr title "packet delay, stats"
scalar TestNetwork.switchA.processingDelay[3] packetReceived:count 0
attr interpolationmode none
attr source packetReceived
attr title "packets received, count"
scalar TestNetwork.switchA.processingDelay[3] packetReceived:sum(packetBytes) 0
attr interpolationmode none
attr source packetReceived
attr title "packets received, sum(packetBytes)"
scalar TestNetwork.switchA.processingDelay[3] packetSent:count 0
attr interpolationmode none
attr source packetSent
attr title "packets sent, count"
scalar TestNetwork.switchA.processingDelay[3] packetSent:sum(packetBytes) 0
attr interpolationmode none
attr source packetSent
attr title "packets sent, sum(packetBytes)"

