version 2
run General-0-20190422-16:16:23-10382
attr configname General
attr datetime 20190422-16:16:23
attr experiment General
attr inifile 01_SanityCheck.ini
attr iterationvars ""
attr iterationvarsf ""
attr measurement ""
attr network TestNetwork
attr processid 10382
attr repetition 0
attr replication #0
attr resultdir 01_results_SanityCheck
attr runnumber 0
attr seedset 0
param **.displayAddresses true
param **.verbose true
param **.promiscuous true
param **.registerProtocol true
param **.*.clock.clockRate "\"1us\""
param **.robotController.eth.address "\"00-00-00-00-00-01\""
param **.workstation1.eth.address "\"00-00-00-00-00-02\""
param **.sink.eth.address "\"00-00-00-00-00-03\""
param **.switch*.processingDelay[*].delay 5us
param **.filteringDatabase.database "xmldoc(\"01_results_SanityCheck/01_SanityCheck_Routing.xml\", \"/filteringDatabases/\")"
param **.filteringDatabase.cycle "xmldoc(\"01_results_SanityCheck/01_SanityCheck_Schedule.xml\", \"/schedule/\")"
param **.gateController.initialSchedule "xmldoc(\"01_results_SanityCheck/01_SanityCheck_Schedule.xml\")"
param **.gateController.enableHoldAndRelease false
param **.switch*.queuing[*].tsAlgorithms[0].typename "\"StrictPriority\""
param **.switch*.queuing[*].tsAlgorithms[1].typename "\"StrictPriority\""
param **.switch*.queuing[*].tsAlgorithms[2].typename "\"StrictPriority\""
param **.switch*.queuing[*].tsAlgorithms[3].typename "\"StrictPriority\""
param **.switch*.queuing[*].tsAlgorithms[4].typename "\"StrictPriority\""
param **.switch*.queuing[*].tsAlgorithms[5].typename "\"StrictPriority\""
param **.switch*.queuing[*].tsAlgorithms[6].typename "\"StrictPriority\""
param **.switch*.queuing[*].tsAlgorithms[7].typename "\"StrictPriority\""
param **.queues[0].expressQueue false
param **.queues[1].expressQueue false
param **.queues[2].expressQueue false
param **.queues[3].expressQueue false
param **.queues[4].expressQueue false
param **.queues[5].expressQueue false
param **.queues[6].expressQueue false
param **.queues[7].expressQueue true
param **.queues[*].bufferCapacity 363360b
param **.switchA.eth[2].mac.enablePreemptingFrames true
param **.robotController.trafGenSchedApp.initialSchedule "xmldoc(\"01_results_SanityCheck/01_SanityCheck_Schedule.xml\")"
param **.workstation1.trafGenQueueApp.destAddress "\"00-00-00-00-00-03\""
param **.workstation1.trafGenQueueApp.packetLength "1500Byte - 4Byte"
param **.workstation1.trafGenQueueApp.vlanTagEnabled true
param **.workstation1.trafGenQueueApp.pcp 6
param **.sink.trafGenApp.numPacketsPerBurst 0
param **.sink.trafGenApp.sendInterval 1ms
param **.sink.trafGenApp.packetLength 100B

vector 0 TestNetwork.sink.eth.queuing.queues[0] queueLength:vector ETV
attr interpolationmode sample-hold
attr title "queue length, vector"
vector 1 TestNetwork.sink.eth.queuing.queues[1] queueLength:vector ETV
attr interpolationmode sample-hold
attr title "queue length, vector"
vector 2 TestNetwork.sink.eth.queuing.queues[2] queueLength:vector ETV
attr interpolationmode sample-hold
attr title "queue length, vector"
vector 3 TestNetwork.sink.eth.queuing.queues[3] queueLength:vector ETV
attr interpolationmode sample-hold
attr title "queue length, vector"
vector 4 TestNetwork.sink.eth.queuing.queues[4] queueLength:vector ETV
attr interpolationmode sample-hold
attr title "queue length, vector"
vector 5 TestNetwork.sink.eth.queuing.queues[5] queueLength:vector ETV
attr interpolationmode sample-hold
attr title "queue length, vector"
vector 6 TestNetwork.sink.eth.queuing.queues[6] queueLength:vector ETV
attr interpolationmode sample-hold
attr title "queue length, vector"
vector 7 TestNetwork.sink.eth.queuing.queues[7] queueLength:vector ETV
attr interpolationmode sample-hold
attr title "queue length, vector"
vector 8 TestNetwork.sink1.eth.queuing.queues[0] queueLength:vector ETV
attr interpolationmode sample-hold
attr title "queue length, vector"
vector 9 TestNetwork.sink1.eth.queuing.queues[1] queueLength:vector ETV
attr interpolationmode sample-hold
attr title "queue length, vector"
vector 10 TestNetwork.sink1.eth.queuing.queues[2] queueLength:vector ETV
attr interpolationmode sample-hold
attr title "queue length, vector"
vector 11 TestNetwork.sink1.eth.queuing.queues[3] queueLength:vector ETV
attr interpolationmode sample-hold
attr title "queue length, vector"
vector 12 TestNetwork.sink1.eth.queuing.queues[4] queueLength:vector ETV
attr interpolationmode sample-hold
attr title "queue length, vector"
vector 13 TestNetwork.sink1.eth.queuing.queues[5] queueLength:vector ETV
attr interpolationmode sample-hold
attr title "queue length, vector"
vector 14 TestNetwork.sink1.eth.queuing.queues[6] queueLength:vector ETV
attr interpolationmode sample-hold
attr title "queue length, vector"
vector 15 TestNetwork.sink1.eth.queuing.queues[7] queueLength:vector ETV
attr interpolationmode sample-hold
attr title "queue length, vector"
vector 16 TestNetwork.switchA.eth[0].queuing.queues[0] queueLength:vector ETV
attr interpolationmode sample-hold
attr title "queue length, vector"
vector 17 TestNetwork.switchA.eth[0].queuing.queues[1] queueLength:vector ETV
attr interpolationmode sample-hold
attr title "queue length, vector"
vector 18 TestNetwork.switchA.eth[0].queuing.queues[2] queueLength:vector ETV
attr interpolationmode sample-hold
attr title "queue length, vector"
vector 19 TestNetwork.switchA.eth[0].queuing.queues[3] queueLength:vector ETV
attr interpolationmode sample-hold
attr title "queue length, vector"
vector 20 TestNetwork.switchA.eth[0].queuing.queues[4] queueLength:vector ETV
attr interpolationmode sample-hold
attr title "queue length, vector"
vector 21 TestNetwork.switchA.eth[0].queuing.queues[5] queueLength:vector ETV
attr interpolationmode sample-hold
attr title "queue length, vector"
vector 22 TestNetwork.switchA.eth[0].queuing.queues[6] queueLength:vector ETV
attr interpolationmode sample-hold
attr title "queue length, vector"
vector 23 TestNetwork.switchA.eth[0].queuing.queues[7] queueLength:vector ETV
attr interpolationmode sample-hold
attr title "queue length, vector"
vector 24 TestNetwork.switchA.eth[1].queuing.queues[0] queueLength:vector ETV
attr interpolationmode sample-hold
attr title "queue length, vector"
vector 25 TestNetwork.switchA.eth[1].queuing.queues[1] queueLength:vector ETV
attr interpolationmode sample-hold
attr title "queue length, vector"
vector 26 TestNetwork.switchA.eth[1].queuing.queues[2] queueLength:vector ETV
attr interpolationmode sample-hold
attr title "queue length, vector"
vector 27 TestNetwork.switchA.eth[1].queuing.queues[3] queueLength:vector ETV
attr interpolationmode sample-hold
attr title "queue length, vector"
vector 28 TestNetwork.switchA.eth[1].queuing.queues[4] queueLength:vector ETV
attr interpolationmode sample-hold
attr title "queue length, vector"
vector 29 TestNetwork.switchA.eth[1].queuing.queues[5] queueLength:vector ETV
attr interpolationmode sample-hold
attr title "queue length, vector"
vector 30 TestNetwork.switchA.eth[1].queuing.queues[6] queueLength:vector ETV
attr interpolationmode sample-hold
attr title "queue length, vector"
vector 31 TestNetwork.switchA.eth[1].queuing.queues[7] queueLength:vector ETV
attr interpolationmode sample-hold
attr title "queue length, vector"
vector 32 TestNetwork.switchA.eth[2].queuing.queues[0] queueLength:vector ETV
attr interpolationmode sample-hold
attr title "queue length, vector"
vector 33 TestNetwork.switchA.eth[2].queuing.queues[1] queueLength:vector ETV
attr interpolationmode sample-hold
attr title "queue length, vector"
vector 34 TestNetwork.switchA.eth[2].queuing.queues[2] queueLength:vector ETV
attr interpolationmode sample-hold
attr title "queue length, vector"
vector 35 TestNetwork.switchA.eth[2].queuing.queues[3] queueLength:vector ETV
attr interpolationmode sample-hold
attr title "queue length, vector"
vector 36 TestNetwork.switchA.eth[2].queuing.queues[4] queueLength:vector ETV
attr interpolationmode sample-hold
attr title "queue length, vector"
vector 37 TestNetwork.switchA.eth[2].queuing.queues[5] queueLength:vector ETV
attr interpolationmode sample-hold
attr title "queue length, vector"
vector 38 TestNetwork.switchA.eth[2].queuing.queues[6] queueLength:vector ETV
attr interpolationmode sample-hold
attr title "queue length, vector"
vector 39 TestNetwork.switchA.eth[2].queuing.queues[7] queueLength:vector ETV
attr interpolationmode sample-hold
attr title "queue length, vector"
vector 40 TestNetwork.switchA.eth[3].queuing.queues[0] queueLength:vector ETV
attr interpolationmode sample-hold
attr title "queue length, vector"
vector 41 TestNetwork.switchA.eth[3].queuing.queues[1] queueLength:vector ETV
attr interpolationmode sample-hold
attr title "queue length, vector"
vector 42 TestNetwork.switchA.eth[3].queuing.queues[2] queueLength:vector ETV
attr interpolationmode sample-hold
attr title "queue length, vector"
vector 43 TestNetwork.switchA.eth[3].queuing.queues[3] queueLength:vector ETV
attr interpolationmode sample-hold
attr title "queue length, vector"
vector 44 TestNetwork.switchA.eth[3].queuing.queues[4] queueLength:vector ETV
attr interpolationmode sample-hold
attr title "queue length, vector"
vector 45 TestNetwork.switchA.eth[3].queuing.queues[5] queueLength:vector ETV
attr interpolationmode sample-hold
attr title "queue length, vector"
vector 46 TestNetwork.switchA.eth[3].queuing.queues[6] queueLength:vector ETV
attr interpolationmode sample-hold
attr title "queue length, vector"
vector 47 TestNetwork.switchA.eth[3].queuing.queues[7] queueLength:vector ETV
attr interpolationmode sample-hold
attr title "queue length, vector"
vector 48 TestNetwork.workstation1.trafGenQueueApp sentPk:vector(packetBytes) ETV
attr interpolationmode none
attr source sentPk
attr title "packets sent, vector(packetBytes)"
48	0	0	1496
0	0	0	0
1	0	0	0
2	0	0	0
3	0	0	0
4	0	0	0
5	0	0	0
6	0	0	0
7	0	0	0
8	0	0	0
9	0	0	0
10	0	0	0
11	0	0	0
12	0	0	0
13	0	0	0
14	0	0	0
15	0	0	0
16	0	0	0
17	0	0	0
18	0	0	0
19	0	0	0
20	0	0	0
21	0	0	0
22	0	0	0
23	0	0	0
24	0	0	0
25	0	0	0
26	0	0	0
27	0	0	0
28	0	0	0
29	0	0	0
30	0	0	0
31	0	0	0
32	0	0	0
33	0	0	0
34	0	0	0
35	0	0	0
36	0	0	0
37	0	0	0
38	0	0	0
39	0	0	0
40	0	0	0
41	0	0	0
42	0	0	0
43	0	0	0
44	0	0	0
45	0	0	0
46	0	0	0
47	0	0	0
