file 27586 1556015689                                           
version 2
run General-0-20190423-12:34:17-22092
attr configname General
attr datetime 20190423-12:34:17
attr experiment General
attr inifile 06_Scheduling.ini
attr iterationvars ""
attr iterationvarsf ""
attr measurement ""
attr network TestNetwork
attr processid 22092
attr repetition 0
attr replication #0
attr resultdir 06_results_Scheduling
attr runnumber 0
attr seedset 0
param **.displayAddresses true
param **.verbose true
param **.promiscuous true
param **.registerProtocol true
param **.*.clock.clockRate "\"1us\""
param **.robotController.eth.address "\"00-00-00-00-00-01\""
param **.workstation1.eth.address "\"00-00-00-00-00-02\""
param **.sink.eth.address "\"00-00-00-00-00-03\""
param **.sink1.eth.address "\"00-00-00-00-00-04\""
param **.switch*.processingDelay[*].delay 5us
param **.filteringDatabase.database "xmldoc(\"06_results_Scheduling/06_Scheduling_Routing.xml\", \"/filteringDatabases/\")"
param **.filteringDatabase.cycle "xmldoc(\"06_results_Scheduling/06_Scheduling_Schedule.xml\", \"/schedule/\")"
param **.gateController.initialSchedule "xmldoc(\"06_results_Scheduling/06_Scheduling_Schedule.xml\")"
param **.gateController.enableHoldAndRelease false
param **.switch*.queuing[*].tsAlgorithms[0].typename "\"StrictPriority\""
param **.switch*.queuing[*].tsAlgorithms[1].typename "\"StrictPriority\""
param **.switch*.queuing[*].tsAlgorithms[2].typename "\"StrictPriority\""
param **.switch*.queuing[*].tsAlgorithms[3].typename "\"StrictPriority\""
param **.switch*.queuing[*].tsAlgorithms[4].typename "\"StrictPriority\""
param **.switch*.queuing[*].tsAlgorithms[5].typename "\"StrictPriority\""
param **.switch*.queuing[*].tsAlgorithms[6].typename "\"StrictPriority\""
param **.switch*.queuing[*].tsAlgorithms[7].typename "\"StrictPriority\""
param **.queues[0].expressQueue false
param **.queues[1].expressQueue false
param **.queues[2].expressQueue false
param **.queues[3].expressQueue false
param **.queues[4].expressQueue false
param **.queues[5].expressQueue false
param **.queues[6].expressQueue false
param **.queues[7].expressQueue false
param **.queues[*].bufferCapacity 363360b
param **.switchA.eth[2].mac.enablePreemptingFrames false
param **.robotController.trafGenSchedApp.initialSchedule "xmldoc(\"06_results_Scheduling/06_Scheduling_Schedule.xml\")"
param **.workstation1.trafGenQueueApp.destAddress "\"00-00-00-00-00-04\""
param **.workstation1.trafGenQueueApp.packetLength 470Byte
param **.workstation1.trafGenQueueApp.vlanTagEnabled true
param **.workstation1.trafGenQueueApp.pcp 5
param **.sink.trafGenApp.numPacketsPerBurst 0
param **.sink.trafGenApp.sendInterval 1ms
param **.sink.trafGenApp.packetLength 100B
param **.sink1.trafGenApp.numPacketsPerBurst 0
param **.sink1.trafGenApp.sendInterval 1ms
param **.sink1.trafGenApp.packetLength 100B

vector 0 TestNetwork.sink.eth.queuing.queues[0] queueLength:vector ETV
attr interpolationmode sample-hold
attr title "queue length, vector"
vector 1 TestNetwork.sink.eth.queuing.queues[1] queueLength:vector ETV
attr interpolationmode sample-hold
attr title "queue length, vector"
vector 2 TestNetwork.sink.eth.queuing.queues[2] queueLength:vector ETV
attr interpolationmode sample-hold
attr title "queue length, vector"
vector 3 TestNetwork.sink.eth.queuing.queues[3] queueLength:vector ETV
attr interpolationmode sample-hold
attr title "queue length, vector"
vector 4 TestNetwork.sink.eth.queuing.queues[4] queueLength:vector ETV
attr interpolationmode sample-hold
attr title "queue length, vector"
vector 5 TestNetwork.sink.eth.queuing.queues[5] queueLength:vector ETV
attr interpolationmode sample-hold
attr title "queue length, vector"
vector 6 TestNetwork.sink.eth.queuing.queues[6] queueLength:vector ETV
attr interpolationmode sample-hold
attr title "queue length, vector"
vector 7 TestNetwork.sink.eth.queuing.queues[7] queueLength:vector ETV
attr interpolationmode sample-hold
attr title "queue length, vector"
vector 8 TestNetwork.sink1.eth.queuing.queues[0] queueLength:vector ETV
attr interpolationmode sample-hold
attr title "queue length, vector"
vector 9 TestNetwork.sink1.eth.queuing.queues[1] queueLength:vector ETV
attr interpolationmode sample-hold
attr title "queue length, vector"
vector 10 TestNetwork.sink1.eth.queuing.queues[2] queueLength:vector ETV
attr interpolationmode sample-hold
attr title "queue length, vector"
vector 11 TestNetwork.sink1.eth.queuing.queues[3] queueLength:vector ETV
attr interpolationmode sample-hold
attr title "queue length, vector"
vector 12 TestNetwork.sink1.eth.queuing.queues[4] queueLength:vector ETV
attr interpolationmode sample-hold
attr title "queue length, vector"
vector 13 TestNetwork.sink1.eth.queuing.queues[5] queueLength:vector ETV
attr interpolationmode sample-hold
attr title "queue length, vector"
vector 14 TestNetwork.sink1.eth.queuing.queues[6] queueLength:vector ETV
attr interpolationmode sample-hold
attr title "queue length, vector"
vector 15 TestNetwork.sink1.eth.queuing.queues[7] queueLength:vector ETV
attr interpolationmode sample-hold
attr title "queue length, vector"
vector 16 TestNetwork.switchA.eth[0].queuing.queues[0] queueLength:vector ETV
attr interpolationmode sample-hold
attr title "queue length, vector"
vector 17 TestNetwork.switchA.eth[0].queuing.queues[1] queueLength:vector ETV
attr interpolationmode sample-hold
attr title "queue length, vector"
vector 18 TestNetwork.switchA.eth[0].queuing.queues[2] queueLength:vector ETV
attr interpolationmode sample-hold
attr title "queue length, vector"
vector 19 TestNetwork.switchA.eth[0].queuing.queues[3] queueLength:vector ETV
attr interpolationmode sample-hold
attr title "queue length, vector"
vector 20 TestNetwork.switchA.eth[0].queuing.queues[4] queueLength:vector ETV
attr interpolationmode sample-hold
attr title "queue length, vector"
vector 21 TestNetwork.switchA.eth[0].queuing.queues[5] queueLength:vector ETV
attr interpolationmode sample-hold
attr title "queue length, vector"
vector 22 TestNetwork.switchA.eth[0].queuing.queues[6] queueLength:vector ETV
attr interpolationmode sample-hold
attr title "queue length, vector"
vector 23 TestNetwork.switchA.eth[0].queuing.queues[7] queueLength:vector ETV
attr interpolationmode sample-hold
attr title "queue length, vector"
vector 24 TestNetwork.switchA.eth[1].queuing.queues[0] queueLength:vector ETV
attr interpolationmode sample-hold
attr title "queue length, vector"
vector 25 TestNetwork.switchA.eth[1].queuing.queues[1] queueLength:vector ETV
attr interpolationmode sample-hold
attr title "queue length, vector"
vector 26 TestNetwork.switchA.eth[1].queuing.queues[2] queueLength:vector ETV
attr interpolationmode sample-hold
attr title "queue length, vector"
vector 27 TestNetwork.switchA.eth[1].queuing.queues[3] queueLength:vector ETV
attr interpolationmode sample-hold
attr title "queue length, vector"
vector 28 TestNetwork.switchA.eth[1].queuing.queues[4] queueLength:vector ETV
attr interpolationmode sample-hold
attr title "queue length, vector"
vector 29 TestNetwork.switchA.eth[1].queuing.queues[5] queueLength:vector ETV
attr interpolationmode sample-hold
attr title "queue length, vector"
vector 30 TestNetwork.switchA.eth[1].queuing.queues[6] queueLength:vector ETV
attr interpolationmode sample-hold
attr title "queue length, vector"
vector 31 TestNetwork.switchA.eth[1].queuing.queues[7] queueLength:vector ETV
attr interpolationmode sample-hold
attr title "queue length, vector"
vector 32 TestNetwork.switchA.eth[2].queuing.queues[0] queueLength:vector ETV
attr interpolationmode sample-hold
attr title "queue length, vector"
vector 33 TestNetwork.switchA.eth[2].queuing.queues[1] queueLength:vector ETV
attr interpolationmode sample-hold
attr title "queue length, vector"
vector 34 TestNetwork.switchA.eth[2].queuing.queues[2] queueLength:vector ETV
attr interpolationmode sample-hold
attr title "queue length, vector"
vector 35 TestNetwork.switchA.eth[2].queuing.queues[3] queueLength:vector ETV
attr interpolationmode sample-hold
attr title "queue length, vector"
vector 36 TestNetwork.switchA.eth[2].queuing.queues[4] queueLength:vector ETV
attr interpolationmode sample-hold
attr title "queue length, vector"
vector 37 TestNetwork.switchA.eth[2].queuing.queues[5] queueLength:vector ETV
attr interpolationmode sample-hold
attr title "queue length, vector"
vector 38 TestNetwork.switchA.eth[2].queuing.queues[6] queueLength:vector ETV
attr interpolationmode sample-hold
attr title "queue length, vector"
vector 39 TestNetwork.switchA.eth[2].queuing.queues[7] queueLength:vector ETV
attr interpolationmode sample-hold
attr title "queue length, vector"
vector 40 TestNetwork.switchA.eth[3].queuing.queues[0] queueLength:vector ETV
attr interpolationmode sample-hold
attr title "queue length, vector"
vector 41 TestNetwork.switchA.eth[3].queuing.queues[1] queueLength:vector ETV
attr interpolationmode sample-hold
attr title "queue length, vector"
vector 42 TestNetwork.switchA.eth[3].queuing.queues[2] queueLength:vector ETV
attr interpolationmode sample-hold
attr title "queue length, vector"
vector 43 TestNetwork.switchA.eth[3].queuing.queues[3] queueLength:vector ETV
attr interpolationmode sample-hold
attr title "queue length, vector"
vector 44 TestNetwork.switchA.eth[3].queuing.queues[4] queueLength:vector ETV
attr interpolationmode sample-hold
attr title "queue length, vector"
vector 45 TestNetwork.switchA.eth[3].queuing.queues[5] queueLength:vector ETV
attr interpolationmode sample-hold
attr title "queue length, vector"
vector 46 TestNetwork.switchA.eth[3].queuing.queues[6] queueLength:vector ETV
attr interpolationmode sample-hold
attr title "queue length, vector"
vector 47 TestNetwork.switchA.eth[3].queuing.queues[7] queueLength:vector ETV
attr interpolationmode sample-hold
attr title "queue length, vector"
vector 48 TestNetwork.workstation1.trafGenQueueApp sentPk:vector(packetBytes) ETV
attr interpolationmode none
attr source sentPk
attr title "packets sent, vector(packetBytes)"
vector 49 TestNetwork.workstation1.eth.etherEncap encapPk:vector(packetBytes) ETV
attr interpolationmode none
attr source encapPk
attr title "packets encapsulated, vector(packetBytes)"
vector 50 TestNetwork.workstation1.eth.vlanEncap encapPk:vector(packetBytes) ETV
attr interpolationmode none
attr source encapPk
attr title "packets encapsulated, vector(packetBytes)"
vector 51 TestNetwork.switchA.eth[0].queuing.tGates[4] gateStateChanged:vector ETV
attr interpolationmode none
attr title "gateStateChanged, vector"
vector 52 TestNetwork.switchA.eth[0].queuing.tGates[5] gateStateChanged:vector ETV
attr interpolationmode none
attr title "gateStateChanged, vector"
vector 53 TestNetwork.switchA.eth[0].queuing.tGates[6] gateStateChanged:vector ETV
attr interpolationmode none
attr title "gateStateChanged, vector"
vector 54 TestNetwork.switchA.eth[0].queuing.tGates[7] gateStateChanged:vector ETV
attr interpolationmode none
attr title "gateStateChanged, vector"
vector 55 TestNetwork.switchA.eth[1].queuing.tGates[0] gateStateChanged:vector ETV
attr interpolationmode none
attr title "gateStateChanged, vector"
vector 56 TestNetwork.switchA.eth[1].queuing.tGates[2] gateStateChanged:vector ETV
attr interpolationmode none
attr title "gateStateChanged, vector"
vector 57 TestNetwork.switchA.eth[1].queuing.tGates[4] gateStateChanged:vector ETV
attr interpolationmode none
attr title "gateStateChanged, vector"
vector 58 TestNetwork.switchA.eth[1].queuing.tGates[6] gateStateChanged:vector ETV
attr interpolationmode none
attr title "gateStateChanged, vector"
vector 59 TestNetwork.workstation1.eth.mac packetReceivedFromUpper:vector(packetBytes) ETV
attr interpolationmode none
attr source packetReceivedFromUpper
attr title "packet bytes from higher layer, vector(packetBytes)"
vector 60 TestNetwork.switchA.eth[0].queuing.tGates[0] gateStateChanged:vector ETV
attr interpolationmode none
attr title "gateStateChanged, vector"
vector 61 TestNetwork.switchA.eth[0].queuing.tGates[1] gateStateChanged:vector ETV
attr interpolationmode none
attr title "gateStateChanged, vector"
vector 62 TestNetwork.switchA.eth[0].queuing.tGates[2] gateStateChanged:vector ETV
attr interpolationmode none
attr title "gateStateChanged, vector"
vector 63 TestNetwork.switchA.eth[0].queuing.tGates[3] gateStateChanged:vector ETV
attr interpolationmode none
attr title "gateStateChanged, vector"
vector 64 TestNetwork.switchA.eth[1].queuing.tGates[1] gateStateChanged:vector ETV
attr interpolationmode none
attr title "gateStateChanged, vector"
vector 65 TestNetwork.switchA.eth[1].queuing.tGates[3] gateStateChanged:vector ETV
attr interpolationmode none
attr title "gateStateChanged, vector"
vector 66 TestNetwork.switchA.eth[1].queuing.tGates[5] gateStateChanged:vector ETV
attr interpolationmode none
attr title "gateStateChanged, vector"
vector 67 TestNetwork.switchA.eth[1].queuing.tGates[7] gateStateChanged:vector ETV
attr interpolationmode none
attr title "gateStateChanged, vector"
vector 68 TestNetwork.robotController.eth.etherEncap encapPk:vector(packetBytes) ETV
attr interpolationmode none
attr source encapPk
attr title "packets encapsulated, vector(packetBytes)"
vector 69 TestNetwork.robotController.eth.vlanEncap encapPk:vector(packetBytes) ETV
attr interpolationmode none
attr source encapPk
attr title "packets encapsulated, vector(packetBytes)"
vector 70 TestNetwork.robotController.eth.mac packetReceivedFromUpper:vector(packetBytes) ETV
attr interpolationmode none
attr source packetReceivedFromUpper
attr title "packet bytes from higher layer, vector(packetBytes)"
vector 71 TestNetwork.workstation1.eth.mac txPk:vector(packetBytes) ETV
attr interpolationmode none
attr source packetSentToLower
attr title "packets transmitted, vector(packetBytes)"
vector 72 TestNetwork.switchA.eth[0].mac receivedExpressFrame:vector(packetBytes) ETV
attr interpolationmode none
attr title "receivedExpressFrame, vector(packetBytes)"
vector 73 TestNetwork.switchA.eth[0].mac rxPkOk:vector(packetBytes) ETV
attr interpolationmode none
attr source rxPkOk
attr title "packets received OK, vector(packetBytes)"
vector 74 TestNetwork.switchA.eth[0].mac passedUpPk:vector(packetBytes) ETV
attr interpolationmode none
attr source packetSentToUpper
attr title "packets passed to higher layer, vector(packetBytes)"
vector 75 TestNetwork.switchA.eth[0].vlanEncapE decapPk:vector(packetBytes) ETV
attr interpolationmode none
attr source decapPk
attr title "packets decapsulated, vector(packetBytes)"
vector 76 TestNetwork.switchA.processingDelay[0] packetReceived:vector(packetBytes) ETV
attr interpolationmode none
attr source packetReceived
attr title "packets received, vector(packetBytes)"
vector 77 TestNetwork.switchA.processingDelay[0] delay:vector ETV
attr interpolationmode none
attr source delay
attr title "packet delay, vector"
vector 78 TestNetwork.switchA.processingDelay[0] packetSent:vector(packetBytes) ETV
attr interpolationmode none
attr source packetSent
attr title "packets sent, vector(packetBytes)"
vector 79 TestNetwork.switchA.eth[3].queuing.queues[5] rcvdPk:vector(packetBytes) ETV
attr interpolationmode none
attr title "received packets, vector(packetBytes)"
vector 80 TestNetwork.switchA.eth[3].queuing.queues[5] queueingTime:vector ETV
attr interpolationmode none
attr title "queueing time, vector"
vector 81 TestNetwork.switchA.eth[3].etherEncapP encapPk:vector(packetBytes) ETV
attr interpolationmode none
attr source encapPk
attr title "packets encapsulated, vector(packetBytes)"
vector 82 TestNetwork.switchA.eth[3].vlanEncapP encapPk:vector(packetBytes) ETV
attr interpolationmode none
attr source encapPk
attr title "packets encapsulated, vector(packetBytes)"
vector 83 TestNetwork.switchA.eth[3].mac packetReceivedFromUpper:vector(packetBytes) ETV
attr interpolationmode none
attr source packetReceivedFromUpper
attr title "packet bytes from higher layer, vector(packetBytes)"
vector 84 TestNetwork.switchA.eth[3].mac eMacDelay:vector ETV
attr interpolationmode none
attr title "eMacDelay, vector"
vector 85 TestNetwork.robotController.eth.mac txPk:vector(packetBytes) ETV
attr interpolationmode none
attr source packetSentToLower
attr title "packets transmitted, vector(packetBytes)"
vector 86 TestNetwork.switchA.eth[1].mac receivedExpressFrame:vector(packetBytes) ETV
attr interpolationmode none
attr title "receivedExpressFrame, vector(packetBytes)"
vector 87 TestNetwork.switchA.eth[1].mac rxPkOk:vector(packetBytes) ETV
attr interpolationmode none
attr source rxPkOk
attr title "packets received OK, vector(packetBytes)"
vector 88 TestNetwork.switchA.eth[1].mac passedUpPk:vector(packetBytes) ETV
attr interpolationmode none
attr source packetSentToUpper
attr title "packets passed to higher layer, vector(packetBytes)"
vector 89 TestNetwork.switchA.eth[1].vlanEncapE decapPk:vector(packetBytes) ETV
attr interpolationmode none
attr source decapPk
attr title "packets decapsulated, vector(packetBytes)"
vector 90 TestNetwork.switchA.processingDelay[1] packetReceived:vector(packetBytes) ETV
attr interpolationmode none
attr source packetReceived
attr title "packets received, vector(packetBytes)"
vector 91 TestNetwork.switchA.processingDelay[1] delay:vector ETV
attr interpolationmode none
attr source delay
attr title "packet delay, vector"
vector 92 TestNetwork.switchA.processingDelay[1] packetSent:vector(packetBytes) ETV
attr interpolationmode none
attr source packetSent
attr title "packets sent, vector(packetBytes)"
vector 93 TestNetwork.switchA.eth[2].queuing.queues[7] rcvdPk:vector(packetBytes) ETV
attr interpolationmode none
attr title "received packets, vector(packetBytes)"
vector 94 TestNetwork.switchA.eth[2].queuing.queues[7] queueingTime:vector ETV
attr interpolationmode none
attr title "queueing time, vector"
vector 95 TestNetwork.switchA.eth[2].etherEncapP encapPk:vector(packetBytes) ETV
attr interpolationmode none
attr source encapPk
attr title "packets encapsulated, vector(packetBytes)"
vector 96 TestNetwork.switchA.eth[2].vlanEncapP encapPk:vector(packetBytes) ETV
attr interpolationmode none
attr source encapPk
attr title "packets encapsulated, vector(packetBytes)"
vector 97 TestNetwork.switchA.eth[2].mac packetReceivedFromUpper:vector(packetBytes) ETV
attr interpolationmode none
attr source packetReceivedFromUpper
attr title "packet bytes from higher layer, vector(packetBytes)"
vector 98 TestNetwork.switchA.eth[2].mac eMacDelay:vector ETV
attr interpolationmode none
attr title "eMacDelay, vector"
vector 99 TestNetwork.switchA.eth[3].mac txPk:vector(packetBytes) ETV
attr interpolationmode none
attr source packetSentToLower
attr title "packets transmitted, vector(packetBytes)"
vector 100 TestNetwork.sink1.eth.mac receivedExpressFrame:vector(packetBytes) ETV
attr interpolationmode none
attr title "receivedExpressFrame, vector(packetBytes)"
vector 101 TestNetwork.sink1.eth.mac rxPkOk:vector(packetBytes) ETV
attr interpolationmode none
attr source rxPkOk
attr title "packets received OK, vector(packetBytes)"
vector 102 TestNetwork.sink1.eth.mac passedUpPk:vector(packetBytes) ETV
attr interpolationmode none
attr source packetSentToUpper
attr title "packets passed to higher layer, vector(packetBytes)"
vector 103 TestNetwork.sink1.eth.vlanEncapE decapPk:vector(packetBytes) ETV
attr interpolationmode none
attr source decapPk
attr title "packets decapsulated, vector(packetBytes)"
vector 104 TestNetwork.sink1.trafGenApp packetReceived:vector(packetBytes) ETV
attr interpolationmode none
attr source packetReceived
attr title "packets received, vector(packetBytes)"
vector 105 TestNetwork.sink1.trafGenApp endToEndDelay:vector ETV
attr interpolationmode none
attr source dataAge(packetReceived)
attr title "end-to-end delay, vector"
attr unit s
vector 106 TestNetwork.switchA.eth[2].mac txPk:vector(packetBytes) ETV
attr interpolationmode none
attr source packetSentToLower
attr title "packets transmitted, vector(packetBytes)"
vector 107 TestNetwork.sink.eth.mac receivedExpressFrame:vector(packetBytes) ETV
attr interpolationmode none
attr title "receivedExpressFrame, vector(packetBytes)"
vector 108 TestNetwork.sink.eth.mac rxPkOk:vector(packetBytes) ETV
attr interpolationmode none
attr source rxPkOk
attr title "packets received OK, vector(packetBytes)"
vector 109 TestNetwork.sink.eth.mac passedUpPk:vector(packetBytes) ETV
attr interpolationmode none
attr source packetSentToUpper
attr title "packets passed to higher layer, vector(packetBytes)"
vector 110 TestNetwork.sink.eth.vlanEncapE decapPk:vector(packetBytes) ETV
attr interpolationmode none
attr source decapPk
attr title "packets decapsulated, vector(packetBytes)"
vector 111 TestNetwork.sink.trafGenApp packetReceived:vector(packetBytes) ETV
attr interpolationmode none
attr source packetReceived
attr title "packets received, vector(packetBytes)"
vector 112 TestNetwork.sink.trafGenApp endToEndDelay:vector ETV
attr interpolationmode none
attr source dataAge(packetReceived)
attr title "end-to-end delay, vector"
attr unit s
0	20893 8 0 0 0 0 1 0 0 0 0
1	20901 8 0 0 0 0 1 0 0 0 0
2	20909 8 0 0 0 0 1 0 0 0 0
3	20917 8 0 0 0 0 1 0 0 0 0
4	20925 8 0 0 0 0 1 0 0 0 0
5	20933 8 0 0 0 0 1 0 0 0 0
6	20941 8 0 0 0 0 1 0 0 0 0
7	20949 8 0 0 0 0 1 0 0 0 0
8	20957 8 0 0 0 0 1 0 0 0 0
9	20965 8 0 0 0 0 1 0 0 0 0
10	20973 9 0 0 0 0 1 0 0 0 0
11	20982 9 0 0 0 0 1 0 0 0 0
12	20991 9 0 0 0 0 1 0 0 0 0
13	21000 9 0 0 0 0 1 0 0 0 0
14	21009 9 0 0 0 0 1 0 0 0 0
15	21018 9 0 0 0 0 1 0 0 0 0
16	21027 9 0 0 0 0 1 0 0 0 0
17	21036 9 0 0 0 0 1 0 0 0 0
18	21045 9 0 0 0 0 1 0 0 0 0
19	21054 9 0 0 0 0 1 0 0 0 0
20	21063 9 0 0 0 0 1 0 0 0 0
21	21072 9 0 0 0 0 1 0 0 0 0
22	21081 9 0 0 0 0 1 0 0 0 0
23	21090 9 0 0 0 0 1 0 0 0 0
24	21099 9 0 0 0 0 1 0 0 0 0
25	21108 9 0 0 0 0 1 0 0 0 0
26	21117 9 0 0 0 0 1 0 0 0 0
27	21126 9 0 0 0 0 1 0 0 0 0
28	21135 9 0 0 0 0 1 0 0 0 0
29	21144 9 0 0 0 0 1 0 0 0 0
30	21153 9 0 0 0 0 1 0 0 0 0
31	21162 9 0 0 0 0 1 0 0 0 0
32	21171 9 0 0 0 0 1 0 0 0 0
33	21180 9 0 0 0 0 1 0 0 0 0
34	21189 9 0 0 0 0 1 0 0 0 0
35	21198 9 0 0 0 0 1 0 0 0 0
36	21207 9 0 0 0 0 1 0 0 0 0
37	21216 9 0 0 0 0 1 0 0 0 0
38	21225 9 0 0 0 0 1 0 0 0 0
39	21234 89 0 338 0 0.00011502 5 0 1 2 2
40	21323 9 0 0 0 0 1 0 0 0 0
41	21332 9 0 0 0 0 1 0 0 0 0
42	21341 9 0 0 0 0 1 0 0 0 0
43	21350 9 0 0 0 0 1 0 0 0 0
44	21359 9 0 0 0 0 1 0 0 0 0
45	21368 127 0 392 0 0.00012678 7 0 1 3 3
46	21495 9 0 0 0 0 1 0 0 0 0
47	21504 9 0 0 0 0 1 0 0 0 0
48	21513 77 0 372 0 0.00012264 4 470 470 1880 883600
49	21590 77 8 373 0 0.00012264 4 470 470 1880 883600
50	21667 78 14 374 0 0.00012264 4 477 477 1908 910116
51	21745 226 15 405 0 0.00013 14 0 1 7 7
52	21971 226 16 406 0 0.00013 14 0 1 7 7
53	22197 226 17 407 0 0.00013 14 0 1 7 7
54	22423 226 18 408 0 0.00013 14 0 1 7 7
55	22649 226 19 409 0 0.00013 14 0 1 7 7
56	22875 226 20 411 0 0.00013 14 0 1 7 7
57	23101 226 21 413 0 0.00013 14 0 1 7 7
58	23327 227 22 415 0 0.00013 14 0 1 7 7
59	23554 78 23 375 0 0.00012264 4 491 491 1964 964324
60	23632 216 31 401 0.00001 0.00013 13 0 1 6 6
61	23848 216 32 402 0.00001 0.00013 13 0 1 6 6
62	24064 216 33 403 0.00001 0.00013 13 0 1 6 6
63	24280 216 34 404 0.00001 0.00013 13 0 1 6 6
64	24496 216 40 410 0.00001 0.00013 13 0 1 6 6
65	24712 216 42 412 0.00001 0.00013 13 0 1 6 6
66	24928 217 44 414 0.00001 0.00013 13 0 1 6 6
67	25145 217 46 416 0.00001 0.00013 13 0 1 6 6
68	25362 56 49 347 0.00002 0.00012 3 470 470 1410 662700
69	25418 56 66 364 0.00002 0.00012 3 477 477 1431 682587
70	25474 56 67 365 0.00002 0.00012 3 491 491 1473 723243
71	25530 64 85 366 0.00003992 0.00012168 3 491 491 1473 723243
72	25594 65 103 367 0.00004002 0.00012178 3 499 499 1497 747003
73	25659 65 103 367 0.00004002 0.00012178 3 491 491 1473 723243
74	25724 65 103 367 0.00004002 0.00012178 3 491 491 1473 723243
75	25789 65 104 368 0.00004002 0.00012178 3 477 477 1431 682587
76	25854 65 107 371 0.00004002 0.00012178 3 470 470 1410 662700
77	25919 71 107 371 0.00004002 0.00012178 3 5e-06 5e-06 1.5e-05 7.5e-11
78	25990 65 112 382 0.00004502 0.00012678 3 470 470 1410 662700
79	26055 65 115 386 0.00004502 0.00012678 3 470 470 1410 662700
80	26120 59 121 392 0.00004502 0.00012678 3 0 0 0 0
81	26179 65 125 396 0.00004502 0.00012678 3 470 470 1410 662700
82	26244 65 126 397 0.00004502 0.00012678 3 477 477 1431 682587
83	26309 65 127 398 0.00004502 0.00012678 3 491 491 1473 723243
84	26374 83 127 398 0.00004502 0.00012678 3 4.502e-05 0.00012678 0.0002577 2.54787788e-08
85	26457 44 148 305 0.00005992 0.00010992 2 491 491 982 482162
86	26501 44 166 323 0.00006002 0.00011002 2 499 499 998 498002
87	26545 44 166 323 0.00006002 0.00011002 2 491 491 982 482162
88	26589 44 166 323 0.00006002 0.00011002 2 491 491 982 482162
89	26633 44 167 324 0.00006002 0.00011002 2 477 477 954 455058
90	26677 44 170 327 0.00006002 0.00011002 2 470 470 940 441800
91	26721 48 170 327 0.00006002 0.00011002 2 5e-06 5e-06 1e-05 5e-11
92	26769 44 172 329 0.00006502 0.00011502 2 470 470 940 441800
93	26813 44 175 332 0.00006502 0.00011502 2 470 470 940 441800
94	26857 40 181 338 0.00006502 0.00011502 2 0 0 0 0
95	26897 44 185 342 0.00006502 0.00011502 2 470 470 940 441800
96	26941 44 186 343 0.00006502 0.00011502 2 477 477 954 455058
97	26985 44 187 344 0.00006502 0.00011502 2 491 491 982 482162
98	27029 57 187 344 0.00006502 0.00011502 2 6.502e-05 0.00011502 0.00018004 1.74572008e-08
99	27086 44 236 376 0.00008494 0.00012582 2 491 491 982 482162
100	27130 46 237 377 0.00008504 0.00012592 2 499 499 998 498002
101	27176 46 237 377 0.00008504 0.00012592 2 491 491 982 482162
102	27222 46 237 377 0.00008504 0.00012592 2 491 491 982 482162
103	27268 46 238 378 0.00008504 0.00012592 2 477 477 954 455058
104	27314 46 241 381 0.00008504 0.00012592 2 470 470 940 441800
105	27360 58 241 381 0.00008504 0.00012592 2 8.504e-05 8.504e-05 0.00017008 1.44636032e-08
106	27418 23 297 297 0.00010494 0.00010494 1 491 491 491 241081
107	27441 23 298 298 0.00010504 0.00010504 1 499 499 499 249001
108	27464 23 298 298 0.00010504 0.00010504 1 491 491 491 241081
109	27487 23 298 298 0.00010504 0.00010504 1 491 491 491 241081
110	27510 23 299 299 0.00010504 0.00010504 1 477 477 477 227529
111	27533 23 302 302 0.00010504 0.00010504 1 470 470 470 220900
112	27556 29 302 302 0.00010504 0.00010504 1 8.504e-05 8.504e-05 8.504e-05 7.2318016e-09

